L3:Q62645:103070
 OpenBabel09212617523D

 37 38  0  0  0  0  0  0  0  0999 V2000
    3.4953   42.1298   11.3835 C   0  0  0  0  0  0  0  0  0  0  0  0
    2.8552   42.2578   10.1644 C   0  0  0  0  0  0  0  0  0  0  0  0
    2.9007   43.5881    9.6560 C   0  0  0  0  0  0  0  0  0  0  0  0
    3.5749   44.4441   10.5012 C   0  0  0  0  0  0  0  0  0  0  0  0
    4.1515   43.6294   11.8917 S   0  0  0  0  0  0  0  0  0  0  0  0
    3.8336   45.8764   10.3436 C   0  0  0  0  0  0  0  0  0  0  0  0
    5.0345   46.2765    9.7312 C   0  0  0  0  0  0  0  0  0  0  0  0
    5.3278   47.6271    9.5437 C   0  0  0  0  0  0  0  0  0  0  0  0
    4.4238   48.5967    9.9623 C   0  0  0  0  0  0  0  0  0  0  0  0
    3.2266   48.2157   10.5685 C   0  0  0  0  0  0  0  0  0  0  0  0
    2.9142   46.8560   10.7694 C   0  0  0  0  0  0  0  0  0  0  0  0
    1.6063   46.4854   11.4273 C   0  0  0  0  0  0  0  0  0  0  0  0
    0.7651   45.7937   10.6103 F   0  0  0  0  0  0  0  0  0  0  0  0
    0.9103   47.5706   11.8678 F   0  0  0  0  0  0  0  0  0  0  0  0
    1.7674   45.6929   12.5281 F   0  0  0  0  0  0  0  0  0  0  0  0
    4.9119   40.4689   12.3919 N   0  0  0  0  0  0  0  0  0  0  0  0
    3.6255   40.9114   12.1713 C   0  0  0  0  0  0  0  0  0  0  0  0
    2.6583   40.3078   12.6311 O   0  0  0  0  0  0  0  0  0  0  0  0
    5.6827   41.0163   12.0280 H   0  0  0  0  0  0  0  0  0  0  0  0
    5.2194   39.2835   13.1801 C   0  0  0  0  0  0  0  0  0  0  0  0
    6.8345   38.4285   14.8854 N   0  0  0  0  0  0  0  0  0  0  0  0
    6.6912   39.2102   13.6233 C   0  0  1  0  0  0  0  0  0  0  0  0
    6.5499   37.4685   14.6704 H   0  0  0  0  0  0  0  0  0  0  0  0
    7.8352   38.3413   15.0810 H   0  0  0  0  0  0  0  0  0  0  0  0
    7.5649   38.6057   12.5231 C   0  0  0  0  0  0  0  0  0  0  0  0
    8.3303   37.6605   12.6495 O   0  0  0  0  0  0  0  0  0  0  0  0
    7.4633   39.2565   11.3478 O   0  0  0  0  0  0  0  0  0  0  0  0
    7.9875   38.7059   10.7282 H   0  0  0  0  0  0  0  0  0  0  0  0
    2.3943   41.4744    9.6756 H   0  0  0  0  0  0  0  0  0  0  0  0
    2.4784   43.8773    8.7599 H   0  0  0  0  0  0  0  0  0  0  0  0
    5.7081   45.5610    9.4161 H   0  0  0  0  0  0  0  0  0  0  0  0
    6.2143   47.9061    9.0950 H   0  0  0  0  0  0  0  0  0  0  0  0
    4.6381   49.5968    9.8248 H   0  0  0  0  0  0  0  0  0  0  0  0
    2.5591   48.9408   10.8747 H   0  0  0  0  0  0  0  0  0  0  0  0
    4.6017   39.2873   14.0538 H   0  0  0  0  0  0  0  0  0  0  0  0
    5.0338   38.4331   12.5578 H   0  0  0  0  0  0  0  0  0  0  0  0
    7.0230   40.2105   13.8082 H   0  0  0  0  0  0  0  0  0  0  0  0
  1  2  2  0  0  0  0
  2  3  1  0  0  0  0
  2 29  1  0  0  0  0
  3  4  2  0  0  0  0
  3 30  1  0  0  0  0
  4  6  1  0  0  0  0
  4  5  1  0  0  0  0
  5  1  1  0  0  0  0
  6  7  2  0  0  0  0
  7  8  1  0  0  0  0
  7 31  1  0  0  0  0
  8  9  2  0  0  0  0
  8 32  1  0  0  0  0
  9 10  1  0  0  0  0
  9 33  1  0  0  0  0
 10 11  2  0  0  0  0
 10 34  1  0  0  0  0
 11 12  1  0  0  0  0
 11  6  1  0  0  0  0
 12 13  1  0  0  0  0
 12 14  1  0  0  0  0
 12 15  1  0  0  0  0
 16 17  1  0  0  0  0
 16 19  1  0  0  0  0
 17 18  2  0  0  0  0
 17  1  1  0  0  0  0
 20 16  1  0  0  0  0
 20 35  1  0  0  0  0
 20 36  1  0  0  0  0
 21 22  1  0  0  0  0
 21 23  1  0  0  0  0
 21 24  1  0  0  0  0
 22 20  1  0  0  0  0
 22 25  1  0  0  0  0
 22 37  1  1  0  0  0
 25 26  2  0  0  0  0
 25 27  1  0  0  0  0
 27 28  1  0  0  0  0
M  END
>  <minimizedAffinity>
-6.17820

$$$$
