L3:Q62645:108874
     RDKit          3D

 37 38  0  0  0  0  0  0  0  0999 V2000
    2.0509   -1.2363    2.3680 C   0  0  0  0  0  0  0  0  0  0  0  0
    1.4524   -0.5496    1.1835 C   0  0  0  0  0  0  0  0  0  0  0  0
    0.0453   -0.3144    1.0142 C   0  0  0  0  0  0  0  0  0  0  0  0
   -0.2654    0.3361   -0.1671 C   0  0  0  0  0  0  0  0  0  0  0  0
   -1.5526    0.7542   -0.7090 C   0  0  0  0  0  0  0  0  0  0  0  0
   -1.7330    1.1260   -1.8669 O   0  0  0  0  0  0  0  0  0  0  0  0
   -2.6095    0.7143    0.1843 N   0  0  0  0  0  0  0  0  0  0  0  0
   -3.9524    1.1153   -0.2140 C   0  0  0  0  0  0  0  0  0  0  0  0
   -4.6696    0.0608   -1.0754 C   0  0  1  0  0  0  0  0  0  0  0  0
   -4.6530   -1.2825   -0.4364 N   0  0  0  0  0  0  0  0  0  0  0  0
   -6.1097    0.5233   -1.2690 C   0  0  0  0  0  0  0  0  0  0  0  0
   -7.0395    0.3318   -0.4980 O   0  0  0  0  0  0  0  0  0  0  0  0
   -6.2918    1.2472   -2.3903 O   0  0  0  0  0  0  0  0  0  0  0  0
    1.1526    0.6460   -1.0779 S   0  0  0  0  0  0  0  0  0  0  0  0
    2.1677   -0.0529    0.1065 C   0  0  0  0  0  0  0  0  0  0  0  0
    3.6140   -0.0716   -0.1297 C   0  0  0  0  0  0  0  0  0  0  0  0
    4.1563   -1.1250   -0.8849 C   0  0  0  0  0  0  0  0  0  0  0  0
    5.5293   -1.1969   -1.1286 C   0  0  0  0  0  0  0  0  0  0  0  0
    6.3787   -0.2182   -0.6191 C   0  0  0  0  0  0  0  0  0  0  0  0
    5.8570    0.8334    0.1347 C   0  0  0  0  0  0  0  0  0  0  0  0
    4.4811    0.9087    0.3808 C   0  0  0  0  0  0  0  0  0  0  0  0
    3.8597    2.3765    1.4188 Br  0  0  0  0  0  0  0  0  0  0  0  0
    2.6643   -2.0862    2.0518 H   0  0  0  0  0  0  0  0  0  0  0  0
    2.6788   -0.5433    2.9366 H   0  0  0  0  0  0  0  0  0  0  0  0
    1.2739   -1.6157    3.0396 H   0  0  0  0  0  0  0  0  0  0  0  0
   -0.6924   -0.6313    1.7402 H   0  0  0  0  0  0  0  0  0  0  0  0
   -2.4416    0.4884    1.1530 H   0  0  0  0  0  0  0  0  0  0  0  0
   -4.5091    1.3057    0.7115 H   0  0  0  0  0  0  0  0  0  0  0  0
   -3.8873    2.0664   -0.7561 H   0  0  0  0  0  0  0  0  0  0  0  0
   -4.1910   -0.0420   -2.0549 H   0  0  0  0  0  0  0  0  0  0  0  0
   -3.6990   -1.4763   -0.1373 H   0  0  0  0  0  0  0  0  0  0  0  0
   -5.2309   -1.2487    0.4048 H   0  0  0  0  0  0  0  0  0  0  0  0
   -7.2508    1.4483   -2.3975 H   0  0  0  0  0  0  0  0  0  0  0  0
    3.5046   -1.8964   -1.2915 H   0  0  0  0  0  0  0  0  0  0  0  0
    5.9334   -2.0159   -1.7189 H   0  0  0  0  0  0  0  0  0  0  0  0
    7.4477   -0.2717   -0.8107 H   0  0  0  0  0  0  0  0  0  0  0  0
    6.5310    1.5923    0.5248 H   0  0  0  0  0  0  0  0  0  0  0  0
  1  2  1  0
  2  3  1  0
  3  4  2  0
  4  5  1  0
  5  6  2  0
  5  7  1  0
  7  8  1  0
  8  9  1  0
  9 10  1  0
  9 11  1  0
 11 12  2  0
 11 13  1  0
  4 14  1  0
 14 15  1  0
 15 16  1  0
 16 17  2  0
 17 18  1  0
 18 19  2  0
 19 20  1  0
 20 21  2  0
 21 22  1  0
 15  2  2  0
 21 16  1  0
  1 23  1  0
  1 24  1  0
  1 25  1  0
  3 26  1  0
  7 27  1  0
  8 28  1  0
  8 29  1  0
  9 30  1  6
 10 31  1  0
 10 32  1  0
 13 33  1  0
 17 34  1  0
 18 35  1  0
 19 36  1  0
 20 37  1  0
M  END
>  <mol_id>  (1) 
108874

>  <source_index>  (1) 
8

>  <layer>  (1) 
L3

>  <uniprot>  (1) 
Q62645

>  <paff>  (1) 
6.9207999999999998

>  <smiles>  (1) 
Cc1cc(C(=O)NC[C@@H](N)C(=O)O)sc1-c1ccccc1Br

$$$$
