L3:Q62645:134390


 31 33  0  0  0  0  0  0  0  0999 V2000
   14.1286   28.9345   14.3172 C   0  0  0  0  0  0  0  0  0  0  0  0
   14.5074   27.9071   13.4334 C   0  0  0  0  0  0  0  0  0  0  0  0
   15.0864   28.1942   12.1987 C   0  0  0  0  0  0  0  0  0  0  0  0
   15.3131   29.5137   11.8016 C   0  0  0  0  0  0  0  0  0  0  0  0
   14.9386   30.5311   12.6868 C   0  0  0  0  0  0  0  0  0  0  0  0
   15.0513   31.8971   12.5609 N   0  0  0  0  0  0  0  0  0  0  0  0
   14.5483   32.5442   13.6670 C   0  0  0  0  0  0  0  0  0  0  0  0
   14.1320   31.5473   14.5344 C   0  0  0  0  0  0  0  0  0  0  0  0
   14.3586   30.2776   13.9288 C   0  0  0  0  0  0  0  0  0  0  0  0
   15.4771   32.3508   11.7670 H   0  0  0  0  0  0  0  0  0  0  0  0
   12.1329   28.5057   15.8092 C   0  0  0  0  0  0  0  0  0  0  0  0
   11.6364   28.2165   17.0945 C   0  0  0  0  0  0  0  0  0  0  0  0
   12.4967   28.0742   18.1823 C   0  0  0  0  0  0  0  0  0  0  0  0
   13.8675   28.2147   18.0036 C   0  0  0  0  0  0  0  0  0  0  0  0
   14.3764   28.4954   16.7355 C   0  0  0  0  0  0  0  0  0  0  0  0
   13.5271   28.6441   15.6223 C   0  0  0  0  0  0  0  0  0  0  0  0
   10.7772   27.2795   14.0790 C   0  0  0  0  0  0  0  0  0  0  0  0
   11.1410   28.6325   14.6730 C   0  0  0  0  0  0  0  0  0  0  0  0
   14.4996   33.9732   13.8873 C   0  0  0  0  0  0  0  0  0  0  0  0
   15.4078   34.6037   14.4204 O   0  0  0  0  0  0  0  0  0  0  0  0
   13.3369   34.5947   13.4855 N   0  0  0  0  0  0  0  0  0  0  0  0
   12.5371   34.0560   13.1876 H   0  0  0  0  0  0  0  0  0  0  0  0
   13.1443   36.0251   13.6543 C   0  0  0  0  0  0  0  0  0  0  0  0
   13.5633   36.8508   12.4198 C   0  0  0  0  0  0  0  0  0  0  0  0
   12.3943   37.5177   11.7982 N   0  0  0  0  0  0  0  0  0  0  0  0
   11.7486   36.8026   11.4633 H   0  0  0  0  0  0  0  0  0  0  0  0
   11.8911   38.0599   12.4988 H   0  0  0  0  0  0  0  0  0  0  0  0
   14.5994   37.9027   12.8295 C   0  0  0  0  0  0  0  0  0  0  0  0
   14.9747   38.1528   13.9668 O   0  0  0  0  0  0  0  0  0  0  0  0
   15.1098   38.5853   11.7824 O   0  0  0  0  0  0  0  0  0  0  0  0
   15.7205   39.2384   12.1784 H   0  0  0  0  0  0  0  0  0  0  0  0
 17 18  1  0  0  0
 18 11  1  0  0  0
 11 12  2  0  0  0
 12 13  1  0  0  0
 13 14  2  0  0  0
 14 15  1  0  0  0
 15 16  2  0  0  0
 16  1  1  0  0  0
  1  2  2  0  0  0
  2  3  1  0  0  0
  3  4  2  0  0  0
  4  5  1  0  0  0
  5  6  1  0  0  0
  6  7  1  0  0  0
  7 19  1  0  0  0
 19 20  2  0  0  0
 19 21  1  0  0  0
 21 23  1  0  0  0
 23 24  1  0  0  0
 24 25  1  0  0  0
 24 28  1  0  0  0
 28 29  2  0  0  0
 28 30  1  0  0  0
  7  8  2  0  0  0
  8  9  1  0  0  0
 16 11  1  0  0  0
  9  1  1  0  0  0
  9  5  2  0  0  0
  6 10  1  0  0  0
 21 22  1  0  0  0
 25 26  1  0  0  0
 25 27  1  0  0  0
 30 31  1  0  0  0
M  END
> <minimizedAffinity>
-6.52950

$$$$
