L3:Q62645:2221
 OpenBabel09212617523D

 40 41  0  0  0  0  0  0  0  0999 V2000
   13.9307   30.7109   14.6803 C   0  0  0  0  0  0  0  0  0  0  0  0
   14.6301   31.1575   15.7821 C   0  0  0  0  0  0  0  0  0  0  0  0
   15.3554   32.3528   15.5090 C   0  0  0  0  0  0  0  0  0  0  0  0
   15.1981   32.7855   14.2048 C   0  0  0  0  0  0  0  0  0  0  0  0
   14.1745   31.7278   13.3263 S   0  0  0  0  0  0  0  0  0  0  0  0
   13.5667   28.2858   14.1000 C   0  0  0  0  0  0  0  0  0  0  0  0
   12.6762   27.1997   14.0019 C   0  0  0  0  0  0  0  0  0  0  0  0
   11.3290   27.3405   14.3353 C   0  0  0  0  0  0  0  0  0  0  0  0
   10.8479   28.5681   14.7759 C   0  0  0  0  0  0  0  0  0  0  0  0
   11.7159   29.6542   14.8848 C   0  0  0  0  0  0  0  0  0  0  0  0
   13.0772   29.5280   14.5561 C   0  0  0  0  0  0  0  0  0  0  0  0
   15.2479   28.0655   12.2397 C   0  0  0  0  0  0  0  0  0  0  0  0
   15.0183   28.0508   13.7441 C   0  0  0  0  0  0  0  0  0  0  0  0
   15.7982   33.9693   13.6051 C   0  0  0  0  0  0  0  0  0  0  0  0
   16.9720   34.2881   13.7871 O   0  0  0  0  0  0  0  0  0  0  0  0
   14.9664   34.7425   12.8241 N   0  0  0  0  0  0  0  0  0  0  0  0
   13.9909   34.4767   12.7441 H   0  0  0  0  0  0  0  0  0  0  0  0
   15.4174   35.9531   12.1610 C   0  0  0  0  0  0  0  0  0  0  0  0
   14.7118   37.2228   12.6675 C   0  0  1  0  0  0  0  0  0  0  0  0
   15.0197   38.3745   11.7818 N   0  0  0  0  0  0  0  0  0  0  0  0
   15.9835   38.6624   11.9534 H   0  0  0  0  0  0  0  0  0  0  0  0
   14.4328   39.1560   12.0864 H   0  0  0  0  0  0  0  0  0  0  0  0
   13.1952   37.0047   12.7175 C   0  0  0  0  0  0  0  0  0  0  0  0
   12.5446   36.4996   13.6191 O   0  0  0  0  0  0  0  0  0  0  0  0
   12.5632   37.4980   11.6238 O   0  0  0  0  0  0  0  0  0  0  0  0
   11.6201   37.2871   11.7858 H   0  0  0  0  0  0  0  0  0  0  0  0
   14.6282   30.6812   16.6976 H   0  0  0  0  0  0  0  0  0  0  0  0
   15.9352   32.8426   16.2083 H   0  0  0  0  0  0  0  0  0  0  0  0
   13.0259   26.2844   13.6780 H   0  0  0  0  0  0  0  0  0  0  0  0
   10.6901   26.5341   14.2549 H   0  0  0  0  0  0  0  0  0  0  0  0
    9.8514   28.6754   15.0217 H   0  0  0  0  0  0  0  0  0  0  0  0
   11.3538   30.5638   15.2114 H   0  0  0  0  0  0  0  0  0  0  0  0
   16.2844   27.8959   12.0354 H   0  0  0  0  0  0  0  0  0  0  0  0
   14.9572   29.0161   11.8438 H   0  0  0  0  0  0  0  0  0  0  0  0
   14.6635   27.2948   11.7822 H   0  0  0  0  0  0  0  0  0  0  0  0
   15.6122   28.8202   14.1914 H   0  0  0  0  0  0  0  0  0  0  0  0
   15.2954   27.0844   14.1105 H   0  0  0  0  0  0  0  0  0  0  0  0
   15.2300   35.8558   11.1120 H   0  0  0  0  0  0  0  0  0  0  0  0
   16.4599   36.0626   12.3756 H   0  0  0  0  0  0  0  0  0  0  0  0
   15.0688   37.4350   13.6536 H   0  0  0  0  0  0  0  0  0  0  0  0
  1  2  2  0  0  0  0
  2  3  1  0  0  0  0
  2 27  1  0  0  0  0
  3  4  2  0  0  0  0
  3 28  1  0  0  0  0
  4 14  1  0  0  0  0
  4  5  1  0  0  0  0
  5  1  1  0  0  0  0
  6  7  2  0  0  0  0
  7  8  1  0  0  0  0
  7 29  1  0  0  0  0
  8  9  2  0  0  0  0
  8 30  1  0  0  0  0
  9 10  1  0  0  0  0
  9 31  1  0  0  0  0
 10 11  2  0  0  0  0
 10 32  1  0  0  0  0
 11  1  1  0  0  0  0
 11  6  1  0  0  0  0
 12 13  1  0  0  0  0
 12 33  1  0  0  0  0
 12 34  1  0  0  0  0
 12 35  1  0  0  0  0
 13  6  1  0  0  0  0
 13 36  1  0  0  0  0
 13 37  1  0  0  0  0
 14 15  2  0  0  0  0
 14 16  1  0  0  0  0
 16 18  1  0  0  0  0
 16 17  1  0  0  0  0
 18 19  1  0  0  0  0
 18 38  1  0  0  0  0
 18 39  1  0  0  0  0
 19 20  1  0  0  0  0
 19 23  1  0  0  0  0
 19 40  1  1  0  0  0
 20 21  1  0  0  0  0
 20 22  1  0  0  0  0
 23 24  2  0  0  0  0
 23 25  1  0  0  0  0
 25 26  1  0  0  0  0
M  END
>  <minimizedAffinity>
-5.83800

$$$$
