L3:Q62645:24323


  8  7  0  0  0  0  0  0  0  0999 V2000
    8.9171   37.8057   12.5948 N   0  0  0  0  0  0  0  0  0  0  0  0
    8.5199   38.2868   11.2606 C   0  0  0  0  0  0  0  0  0  0  0  0
    9.3294   38.5743   13.1195 H   0  0  0  0  0  0  0  0  0  0  0  0
    9.6533   37.1068   12.4676 H   0  0  0  0  0  0  0  0  0  0  0  0
    8.2938   37.1314   10.2956 C   0  0  0  0  0  0  0  0  0  0  0  0
    7.7398   36.0743   10.5527 O   0  0  0  0  0  0  0  0  0  0  0  0
    8.6986   37.3993    9.0325 O   0  0  0  0  0  0  0  0  0  0  0  0
    8.4941   36.5736    8.5465 H   0  0  0  0  0  0  0  0  0  0  0  0
  1  2  1  0  0  0
  2  5  1  0  0  0
  5  6  2  0  0  0
  5  7  1  0  0  0
  1  3  1  0  0  0
  1  4  1  0  0  0
  7  8  1  0  0  0
M  END
> <minimizedAffinity>
-4.82132

$$$$
