L3:Q62645:38593
 OpenBabel09212617523D

 44 47  0  0  0  0  0  0  0  0999 V2000
   11.6628   47.4570   13.9025 C   0  0  0  0  0  0  0  0  0  0  0  0
   10.4047   47.3844   13.0974 C   0  0  0  0  0  0  0  0  0  0  0  0
   10.5144   47.2880   11.3877 S   0  0  0  0  0  0  0  0  0  0  0  0
    8.8230   47.2793   11.2013 C   0  0  0  0  0  0  0  0  0  0  0  0
    8.2462   47.2424    9.9738 N   0  0  0  0  0  0  0  0  0  0  0  0
    6.9519   47.2481    9.9919 C   0  0  0  0  0  0  0  0  0  0  0  0
    6.1649   47.2532   11.1283 N   0  0  0  0  0  0  0  0  0  0  0  0
    6.7228   47.3028   12.4030 C   0  0  0  0  0  0  0  0  0  0  0  0
    6.0442   47.3369   13.4267 O   0  0  0  0  0  0  0  0  0  0  0  0
    8.1744   47.3208   12.4155 C   0  0  0  0  0  0  0  0  0  0  0  0
    9.0844   47.3819   13.5238 C   0  0  0  0  0  0  0  0  0  0  0  0
    8.7342   47.4638   14.9349 C   0  0  0  0  0  0  0  0  0  0  0  0
    8.5104   48.7063   15.5373 C   0  0  0  0  0  0  0  0  0  0  0  0
    8.2005   48.7786   16.8975 C   0  0  0  0  0  0  0  0  0  0  0  0
    8.1193   47.6112   17.6633 C   0  0  0  0  0  0  0  0  0  0  0  0
    7.7390   47.7762   19.3404 Cl  0  0  0  0  0  0  0  0  0  0  0  0
    8.3457   46.3672   17.0633 C   0  0  0  0  0  0  0  0  0  0  0  0
    8.2738   44.8846   17.9488 Cl  0  0  0  0  0  0  0  0  0  0  0  0
    8.6477   46.2948   15.7004 C   0  0  0  0  0  0  0  0  0  0  0  0
    4.7148   47.2758   11.0150 C   0  0  0  0  0  0  0  0  0  0  0  0
    4.3020   46.1440   10.0797 C   0  0  0  0  0  0  0  0  0  0  0  0
    4.0260   46.3654    8.8994 O   0  0  0  0  0  0  0  0  0  0  0  0
    4.2100   44.8983   10.6202 N   0  0  0  0  0  0  0  0  0  0  0  0
    3.7621   43.6578   10.0154 C   0  0  0  0  0  0  0  0  0  0  0  0
    3.5821   43.1160   11.4521 C   0  0  0  0  0  0  0  0  0  0  0  0
    2.1412   43.0905   11.9422 C   0  0  0  0  0  0  0  0  0  0  0  0
    4.1494   41.9077   11.6918 F   0  0  0  0  0  0  0  0  0  0  0  0
    4.4009   44.3349   11.9392 C   0  0  0  0  0  0  0  0  0  0  0  0
   12.5078   47.4364   13.2464 H   0  0  0  0  0  0  0  0  0  0  0  0
   11.7084   46.6213   14.5691 H   0  0  0  0  0  0  0  0  0  0  0  0
   11.6724   48.3653   14.4680 H   0  0  0  0  0  0  0  0  0  0  0  0
    6.4666   47.2489    9.0811 H   0  0  0  0  0  0  0  0  0  0  0  0
    8.5743   49.5702   14.9764 H   0  0  0  0  0  0  0  0  0  0  0  0
    8.0310   49.6961   17.3385 H   0  0  0  0  0  0  0  0  0  0  0  0
    8.8074   45.3767   15.2570 H   0  0  0  0  0  0  0  0  0  0  0  0
    4.3958   48.2147   10.6130 H   0  0  0  0  0  0  0  0  0  0  0  0
    4.2630   47.1493   11.9766 H   0  0  0  0  0  0  0  0  0  0  0  0
    4.5031   43.1495    9.4345 H   0  0  0  0  0  0  0  0  0  0  0  0
    2.9701   43.6314    9.2964 H   0  0  0  0  0  0  0  0  0  0  0  0
    1.6502   42.2195   11.5611 H   0  0  0  0  0  0  0  0  0  0  0  0
    1.6319   43.9664   11.5981 H   0  0  0  0  0  0  0  0  0  0  0  0
    2.1287   43.0677   13.0119 H   0  0  0  0  0  0  0  0  0  0  0  0
    5.4183   44.1191   12.1908 H   0  0  0  0  0  0  0  0  0  0  0  0
    4.1415   44.8726   12.8272 H   0  0  0  0  0  0  0  0  0  0  0  0
  1  2  1  0  0  0  0
  1 29  1  0  0  0  0
  1 30  1  0  0  0  0
  1 31  1  0  0  0  0
  2  3  1  0  0  0  0
  3  4  1  0  0  0  0
  4  5  1  0  0  0  0
  5  6  2  0  0  0  0
  6  7  1  0  0  0  0
  6 32  1  0  0  0  0
  7 20  1  0  0  0  0
  7  8  1  0  0  0  0
  8  9  2  0  0  0  0
  8 10  1  0  0  0  0
 10 11  1  0  0  0  0
 10  4  2  0  0  0  0
 11 12  1  0  0  0  0
 11  2  2  0  0  0  0
 12 13  2  0  0  0  0
 13 14  1  0  0  0  0
 13 33  1  0  0  0  0
 14 15  2  0  0  0  0
 14 34  1  0  0  0  0
 15 16  1  0  0  0  0
 15 17  1  0  0  0  0
 17 18  1  0  0  0  0
 17 19  2  0  0  0  0
 19 12  1  0  0  0  0
 19 35  1  0  0  0  0
 20 21  1  0  0  0  0
 20 36  1  0  0  0  0
 20 37  1  0  0  0  0
 21 22  2  0  0  0  0
 21 23  1  0  0  0  0
 23 24  1  0  0  0  0
 24 25  1  0  0  0  0
 24 38  1  0  0  0  0
 24 39  1  0  0  0  0
 25 26  1  0  0  0  0
 25 27  1  0  0  0  0
 25 28  1  0  0  0  0
 26 40  1  0  0  0  0
 26 41  1  0  0  0  0
 26 42  1  0  0  0  0
 28 23  1  0  0  0  0
 28 43  1  0  0  0  0
 28 44  1  0  0  0  0
M  END
>  <minimizedAffinity>
-5.90623

$$$$
