L3:Q62645:38593
     RDKit          3D

 44 47  0  0  0  0  0  0  0  0999 V2000
   -5.0922    0.2622    0.7729 C   0  0  0  0  0  0  0  0  0  0  0  0
   -3.7773   -0.4075    1.0156 C   0  0  0  0  0  0  0  0  0  0  0  0
   -3.5994   -1.4198    2.3896 S   0  0  0  0  0  0  0  0  0  0  0  0
   -1.9688   -1.7505    2.0322 C   0  0  0  0  0  0  0  0  0  0  0  0
   -1.2124   -2.5361    2.8394 N   0  0  0  0  0  0  0  0  0  0  0  0
    0.0097   -2.6900    2.4415 C   0  0  0  0  0  0  0  0  0  0  0  0
    0.5506   -2.1585    1.2857 N   0  0  0  0  0  0  0  0  0  0  0  0
    1.9483   -2.3915    0.9566 C   0  0  0  0  0  0  0  0  0  0  0  0
    2.7609   -1.2318    1.5233 C   0  0  0  0  0  0  0  0  0  0  0  0
    2.7444   -0.9750    2.7283 O   0  0  0  0  0  0  0  0  0  0  0  0
    3.4606   -0.4751    0.6344 N   0  0  0  0  0  0  0  0  0  0  0  0
    4.2406    0.7281    0.8556 C   0  0  0  0  0  0  0  0  0  0  0  0
    4.1318    0.9818   -0.6655 C   0  0  0  0  0  0  0  0  0  0  0  0
    3.1060    2.0354   -1.0589 C   0  0  0  0  0  0  0  0  0  0  0  0
    5.3029    1.2523   -1.2938 F   0  0  0  0  0  0  0  0  0  0  0  0
    3.6340   -0.4765   -0.8022 C   0  0  0  0  0  0  0  0  0  0  0  0
   -0.1930   -1.3388    0.4410 C   0  0  0  0  0  0  0  0  0  0  0  0
    0.2736   -0.8319   -0.5764 O   0  0  0  0  0  0  0  0  0  0  0  0
   -1.5629   -1.1280    0.8728 C   0  0  0  0  0  0  0  0  0  0  0  0
   -2.6064   -0.3452    0.2740 C   0  0  0  0  0  0  0  0  0  0  0  0
   -2.5071    0.4585   -0.9363 C   0  0  0  0  0  0  0  0  0  0  0  0
   -3.1702    0.0648   -2.1034 C   0  0  0  0  0  0  0  0  0  0  0  0
   -3.0490    0.8270   -3.2678 C   0  0  0  0  0  0  0  0  0  0  0  0
   -2.2600    1.9816   -3.2736 C   0  0  0  0  0  0  0  0  0  0  0  0
   -2.1497    2.8711   -4.7505 Cl  0  0  0  0  0  0  0  0  0  0  0  0
   -1.5933    2.3758   -2.1079 C   0  0  0  0  0  0  0  0  0  0  0  0
   -0.5924    3.7835   -2.0438 Cl  0  0  0  0  0  0  0  0  0  0  0  0
   -1.7214    1.6173   -0.9407 C   0  0  0  0  0  0  0  0  0  0  0  0
   -5.7181    0.2818    1.6713 H   0  0  0  0  0  0  0  0  0  0  0  0
   -5.6435   -0.2644   -0.0129 H   0  0  0  0  0  0  0  0  0  0  0  0
   -4.9461    1.3003    0.4567 H   0  0  0  0  0  0  0  0  0  0  0  0
    0.7104   -3.2952    3.0396 H   0  0  0  0  0  0  0  0  0  0  0  0
    2.3017   -3.3129    1.4318 H   0  0  0  0  0  0  0  0  0  0  0  0
    2.0712   -2.4908   -0.1245 H   0  0  0  0  0  0  0  0  0  0  0  0
    5.2494    0.5136    1.2199 H   0  0  0  0  0  0  0  0  0  0  0  0
    3.7546    1.4641    1.5013 H   0  0  0  0  0  0  0  0  0  0  0  0
    2.1368    1.8624   -0.5787 H   0  0  0  0  0  0  0  0  0  0  0  0
    2.9510    2.0330   -2.1426 H   0  0  0  0  0  0  0  0  0  0  0  0
    3.4525    3.0332   -0.7714 H   0  0  0  0  0  0  0  0  0  0  0  0
    2.7194   -0.6069   -1.3832 H   0  0  0  0  0  0  0  0  0  0  0  0
    4.3911   -1.1940   -1.1320 H   0  0  0  0  0  0  0  0  0  0  0  0
   -3.7745   -0.8400   -2.1171 H   0  0  0  0  0  0  0  0  0  0  0  0
   -3.5666    0.5104   -4.1703 H   0  0  0  0  0  0  0  0  0  0  0  0
   -1.1973    1.9220   -0.0374 H   0  0  0  0  0  0  0  0  0  0  0  0
  1  2  1  0
  2  3  1  0
  3  4  1  0
  4  5  1  0
  5  6  2  0
  6  7  1  0
  7  8  1  0
  8  9  1  0
  9 10  2  0
  9 11  1  0
 11 12  1  0
 12 13  1  0
 13 14  1  0
 13 15  1  0
 13 16  1  0
  7 17  1  0
 17 18  2  0
 17 19  1  0
 19 20  1  0
 20 21  1  0
 21 22  2  0
 22 23  1  0
 23 24  2  0
 24 25  1  0
 24 26  1  0
 26 27  1  0
 26 28  2  0
 20  2  2  0
 28 21  1  0
 19  4  2  0
 16 11  1  0
  1 29  1  0
  1 30  1  0
  1 31  1  0
  6 32  1  0
  8 33  1  0
  8 34  1  0
 12 35  1  0
 12 36  1  0
 14 37  1  0
 14 38  1  0
 14 39  1  0
 16 40  1  0
 16 41  1  0
 22 42  1  0
 23 43  1  0
 28 44  1  0
M  END
>  <mol_id>  (1) 
38593

>  <source_index>  (1) 
2

>  <layer>  (1) 
L3

>  <uniprot>  (1) 
Q62645

>  <paff>  (1) 
6

>  <smiles>  (1) 
Cc1sc2ncn(CC(=O)N3CC(C)(F)C3)c(=O)c2c1-c1ccc(Cl)c(Cl)c1

$$$$
