L3:Q62645:43699
     RDKit          3D

 34 35  0  0  0  0  0  0  0  0999 V2000
   -4.5292    0.3698    1.1446 N   0  0  0  0  0  0  0  0  0  0  0  0
   -4.7802   -0.0157   -0.2754 C   0  0  2  0  0  0  0  0  0  0  0  0
   -3.9767   -1.2711   -0.6575 C   0  0  0  0  0  0  0  0  0  0  0  0
   -2.5941   -1.2336   -0.1945 N   0  0  0  0  0  0  0  0  0  0  0  0
   -1.5719   -0.7142   -0.9650 C   0  0  0  0  0  0  0  0  0  0  0  0
   -1.8040   -0.2569   -2.0826 O   0  0  0  0  0  0  0  0  0  0  0  0
   -0.2524   -0.7404   -0.3459 C   0  0  0  0  0  0  0  0  0  0  0  0
    0.1934   -1.3904    0.7927 C   0  0  0  0  0  0  0  0  0  0  0  0
    1.5684   -1.1417    1.0445 C   0  0  0  0  0  0  0  0  0  0  0  0
    2.4354   -1.9160    2.5363 Br  0  0  0  0  0  0  0  0  0  0  0  0
    2.1553   -0.3154    0.1152 C   0  0  0  0  0  0  0  0  0  0  0  0
    3.5294    0.1801    0.0262 C   0  0  0  0  0  0  0  0  0  0  0  0
    4.4337   -0.4901   -0.8148 C   0  0  0  0  0  0  0  0  0  0  0  0
    5.7590   -0.0637   -0.9232 C   0  0  0  0  0  0  0  0  0  0  0  0
    6.1986    1.0364   -0.1913 C   0  0  0  0  0  0  0  0  0  0  0  0
    5.3143    1.7121    0.6497 C   0  0  0  0  0  0  0  0  0  0  0  0
    3.9853    1.2877    0.7607 C   0  0  0  0  0  0  0  0  0  0  0  0
    2.8496    2.2712    1.9275 Br  0  0  0  0  0  0  0  0  0  0  0  0
    1.0242    0.1430   -1.0868 S   0  0  0  0  0  0  0  0  0  0  0  0
   -4.4498    1.1521   -1.2061 C   0  0  0  0  0  0  0  0  0  0  0  0
   -3.9574    2.2198   -0.8701 O   0  0  0  0  0  0  0  0  0  0  0  0
   -4.8017    0.9265   -2.4864 O   0  0  0  0  0  0  0  0  0  0  0  0
   -5.0699    1.2188    1.3302 H   0  0  0  0  0  0  0  0  0  0  0  0
   -3.5592    0.6966    1.1899 H   0  0  0  0  0  0  0  0  0  0  0  0
   -5.8524   -0.2165   -0.3822 H   0  0  0  0  0  0  0  0  0  0  0  0
   -4.4270   -2.1478   -0.1777 H   0  0  0  0  0  0  0  0  0  0  0  0
   -3.9895   -1.4428   -1.7392 H   0  0  0  0  0  0  0  0  0  0  0  0
   -2.4247   -1.5257    0.7568 H   0  0  0  0  0  0  0  0  0  0  0  0
   -0.4270   -2.0237    1.4134 H   0  0  0  0  0  0  0  0  0  0  0  0
    4.1073   -1.3528   -1.3928 H   0  0  0  0  0  0  0  0  0  0  0  0
    6.4469   -0.5913   -1.5796 H   0  0  0  0  0  0  0  0  0  0  0  0
    7.2301    1.3696   -0.2757 H   0  0  0  0  0  0  0  0  0  0  0  0
    5.6699    2.5703    1.2147 H   0  0  0  0  0  0  0  0  0  0  0  0
   -4.4339    1.6959   -2.9715 H   0  0  0  0  0  0  0  0  0  0  0  0
  1  2  1  0
  2  3  1  0
  3  4  1  0
  4  5  1  0
  5  6  2  0
  5  7  1  0
  7  8  2  0
  8  9  1  0
  9 10  1  0
  9 11  2  0
 11 12  1  0
 12 13  2  0
 13 14  1  0
 14 15  2  0
 15 16  1  0
 16 17  2  0
 17 18  1  0
 11 19  1  0
  2 20  1  0
 20 21  2  0
 20 22  1  0
 19  7  1  0
 17 12  1  0
  1 23  1  0
  1 24  1  0
  2 25  1  1
  3 26  1  0
  3 27  1  0
  4 28  1  0
  8 29  1  0
 13 30  1  0
 14 31  1  0
 15 32  1  0
 16 33  1  0
 22 34  1  0
M  END
>  <mol_id>  (1) 
43699

>  <source_index>  (1) 
3

>  <layer>  (1) 
L3

>  <uniprot>  (1) 
Q62645

>  <paff>  (1) 
7.7958999999999996

>  <smiles>  (1) 
N[C@H](CNC(=O)c1cc(Br)c(-c2ccccc2Br)s1)C(=O)O

$$$$
