L3:Q62645:43699


 26 27  0  0  0  0  0  0  0  0999 V2000
   15.1601   35.7663   13.9627 N   0  0  0  0  0  0  0  0  0  0  0  0
   15.6136   34.9334   12.9582 C   0  0  0  0  0  0  0  0  0  0  0  0
   16.2823   35.3834   12.0295 O   0  0  0  0  0  0  0  0  0  0  0  0
   14.6901   35.3884   14.7722 H   0  0  0  0  0  0  0  0  0  0  0  0
   15.2566   33.5280   13.1080 C   0  0  0  0  0  0  0  0  0  0  0  0
   15.6060   32.4258   12.3460 C   0  0  0  0  0  0  0  0  0  0  0  0
   15.0305   31.2281   12.8460 C   0  0  0  0  0  0  0  0  0  0  0  0
   15.3530   29.5699   11.9956 Br  0  0  0  0  0  0  0  0  0  0  0  0
   14.2557   31.4180   13.9661 C   0  0  0  0  0  0  0  0  0  0  0  0
   14.2484   33.0687   14.4239 S   0  0  0  0  0  0  0  0  0  0  0  0
   13.4968   30.4542   14.7639 C   0  0  0  0  0  0  0  0  0  0  0  0
   12.1088   30.3611   14.5662 C   0  0  0  0  0  0  0  0  0  0  0  0
   11.3392   29.4663   15.3126 C   0  0  0  0  0  0  0  0  0  0  0  0
   11.9459   28.6545   16.2676 C   0  0  0  0  0  0  0  0  0  0  0  0
   13.3225   28.7355   16.4778 C   0  0  0  0  0  0  0  0  0  0  0  0
   14.0970   29.6310   15.7315 C   0  0  0  0  0  0  0  0  0  0  0  0
   15.9662   29.6705   16.0821 Br  0  0  0  0  0  0  0  0  0  0  0  0
   15.4405   37.1976   13.9737 C   0  0  0  0  0  0  0  0  0  0  0  0
   15.1362   38.3730   11.7894 N   0  0  0  0  0  0  0  0  0  0  0  0
   14.4854   38.0113   13.0831 C   0  0  0  0  0  0  0  0  0  0  0  0
   14.4477   38.8895   11.2356 H   0  0  0  0  0  0  0  0  0  0  0  0
   15.2481   37.4992   11.2661 H   0  0  0  0  0  0  0  0  0  0  0  0
   13.1876   37.2442   12.8252 C   0  0  0  0  0  0  0  0  0  0  0  0
   12.5345   36.6378   13.6625 O   0  0  0  0  0  0  0  0  0  0  0  0
   12.8189   37.2450   11.5299 O   0  0  0  0  0  0  0  0  0  0  0  0
   11.9332   36.8231   11.5362 H   0  0  0  0  0  0  0  0  0  0  0  0
 19 20  1  0  0  0
 20 18  1  0  0  0
 18  1  1  0  0  0
  1  2  1  0  0  0
  2  3  2  0  0  0
  2  5  1  0  0  0
  5  6  2  0  0  0
  6  7  1  0  0  0
  7  8  1  0  0  0
  7  9  2  0  0  0
  9 11  1  0  0  0
 11 12  2  0  0  0
 12 13  1  0  0  0
 13 14  2  0  0  0
 14 15  1  0  0  0
 15 16  2  0  0  0
 16 17  1  0  0  0
  9 10  1  0  0  0
 20 23  1  0  0  0
 23 24  2  0  0  0
 23 25  1  0  0  0
 10  5  1  0  0  0
 16 11  1  0  0  0
 19 21  1  0  0  0
 19 22  1  0  0  0
  1  4  1  0  0  0
 25 26  1  0  0  0
M  END
> <minimizedAffinity>
-5.80545

$$$$
