L3:Q62645:53381


 11 10  0  0  0  0  0  0  0  0999 V2000
   10.1518   38.3436   10.6092 N   0  0  0  0  0  0  0  0  0  0  0  0
    8.6675   38.2578   10.5925 C   0  0  0  0  0  0  0  0  0  0  0  0
   10.4876   38.2518    9.6492 H   0  0  0  0  0  0  0  0  0  0  0  0
   10.4956   37.4986   11.0772 H   0  0  0  0  0  0  0  0  0  0  0  0
    8.2209   36.9077   10.0262 C   0  0  0  0  0  0  0  0  0  0  0  0
    7.7000   35.9932   10.6431 O   0  0  0  0  0  0  0  0  0  0  0  0
    8.4551   36.7827    8.6980 O   0  0  0  0  0  0  0  0  0  0  0  0
    8.1421   35.8747    8.4965 H   0  0  0  0  0  0  0  0  0  0  0  0
    8.0950   38.4253   12.0052 C   0  0  0  0  0  0  0  0  0  0  0  0
    8.8606   37.7062   12.9701 O   0  0  0  0  0  0  0  0  0  0  0  0
    8.7532   36.7570   12.7823 H   0  0  0  0  0  0  0  0  0  0  0  0
  1  2  1  0  0  0
  2  9  1  0  0  0
  9 10  1  0  0  0
  2  5  1  0  0  0
  5  6  2  0  0  0
  5  7  1  0  0  0
  1  3  1  0  0  0
  1  4  1  0  0  0
 10 11  1  0  0  0
  7  8  1  0  0  0
M  END
> <minimizedAffinity>
-6.17152

$$$$
