L3:Q62645:68311
 OpenBabel09212617523D

 40 42  0  0  0  0  0  0  0  0999 V2000
   14.3783   32.3811   13.2604 C   0  0  0  0  0  0  0  0  0  0  0  0
   13.2062   32.3529   13.9978 C   0  0  0  0  0  0  0  0  0  0  0  0
   12.9864   31.0939   14.6326 C   0  0  0  0  0  0  0  0  0  0  0  0
   13.9956   30.1930   14.3675 C   0  0  0  0  0  0  0  0  0  0  0  0
   15.1998   30.8747   13.3651 S   0  0  0  0  0  0  0  0  0  0  0  0
   14.1332   28.8096   14.8343 C   0  0  0  0  0  0  0  0  0  0  0  0
   15.3596   28.4287   15.4045 C   0  0  0  0  0  0  0  0  0  0  0  0
   15.5454   27.1388   15.8899 C   0  0  0  0  0  0  0  0  0  0  0  0
   14.5059   26.2154   15.8148 C   0  0  0  0  0  0  0  0  0  0  0  0
   13.2685   26.5641   15.2518 C   0  0  0  0  0  0  0  0  0  0  0  0
   12.2333   25.6163   15.1847 C   0  0  0  0  0  0  0  0  0  0  0  0
   10.9980   25.9391   14.6253 C   0  0  0  0  0  0  0  0  0  0  0  0
   10.7810   27.2149   14.1228 C   0  0  0  0  0  0  0  0  0  0  0  0
   11.7994   28.1687   14.1827 C   0  0  0  0  0  0  0  0  0  0  0  0
   13.0636   27.8741   14.7486 C   0  0  0  0  0  0  0  0  0  0  0  0
   14.9241   34.7071   13.0441 N   0  0  0  0  0  0  0  0  0  0  0  0
   14.9741   33.4509   12.4675 C   0  0  0  0  0  0  0  0  0  0  0  0
   15.4831   33.2939   11.3593 O   0  0  0  0  0  0  0  0  0  0  0  0
   14.4026   34.8439   13.9011 H   0  0  0  0  0  0  0  0  0  0  0  0
   15.4437   35.8804   12.3602 C   0  0  0  0  0  0  0  0  0  0  0  0
   15.0451   38.3064   11.8605 N   0  0  0  0  0  0  0  0  0  0  0  0
   14.7258   37.1783   12.7643 C   0  0  1  0  0  0  0  0  0  0  0  0
   14.5629   38.1651   10.9694 H   0  0  0  0  0  0  0  0  0  0  0  0
   16.0429   38.3189   11.6541 H   0  0  0  0  0  0  0  0  0  0  0  0
   13.2157   36.9291   12.7554 C   0  0  0  0  0  0  0  0  0  0  0  0
   12.5506   36.3985   13.6314 O   0  0  0  0  0  0  0  0  0  0  0  0
   12.6119   37.4080   11.6433 O   0  0  0  0  0  0  0  0  0  0  0  0
   11.6745   37.1417   11.7714 H   0  0  0  0  0  0  0  0  0  0  0  0
   12.5620   33.1550   14.0793 H   0  0  0  0  0  0  0  0  0  0  0  0
   12.1663   30.8822   15.2223 H   0  0  0  0  0  0  0  0  0  0  0  0
   16.1300   29.1128   15.4637 H   0  0  0  0  0  0  0  0  0  0  0  0
   16.4506   26.8669   16.3043 H   0  0  0  0  0  0  0  0  0  0  0  0
   14.6475   25.2601   16.1787 H   0  0  0  0  0  0  0  0  0  0  0  0
   12.3901   24.6661   15.5555 H   0  0  0  0  0  0  0  0  0  0  0  0
   10.2473   25.2321   14.5848 H   0  0  0  0  0  0  0  0  0  0  0  0
    9.8689   27.4580   13.7058 H   0  0  0  0  0  0  0  0  0  0  0  0
   11.6260   29.1131   13.8046 H   0  0  0  0  0  0  0  0  0  0  0  0
   16.4832   35.9788   12.5939 H   0  0  0  0  0  0  0  0  0  0  0  0
   15.2816   35.7380   11.3122 H   0  0  0  0  0  0  0  0  0  0  0  0
   15.0639   37.4509   13.7422 H   0  0  0  0  0  0  0  0  0  0  0  0
  1  2  2  0  0  0  0
  2  3  1  0  0  0  0
  2 29  1  0  0  0  0
  3  4  2  0  0  0  0
  3 30  1  0  0  0  0
  4  6  1  0  0  0  0
  4  5  1  0  0  0  0
  5  1  1  0  0  0  0
  6  7  2  0  0  0  0
  7  8  1  0  0  0  0
  7 31  1  0  0  0  0
  8  9  2  0  0  0  0
  8 32  1  0  0  0  0
  9 10  1  0  0  0  0
  9 33  1  0  0  0  0
 10 11  2  0  0  0  0
 11 12  1  0  0  0  0
 11 34  1  0  0  0  0
 12 13  2  0  0  0  0
 12 35  1  0  0  0  0
 13 14  1  0  0  0  0
 13 36  1  0  0  0  0
 14 15  2  0  0  0  0
 14 37  1  0  0  0  0
 15  6  1  0  0  0  0
 15 10  1  0  0  0  0
 16 17  1  0  0  0  0
 16 19  1  0  0  0  0
 17 18  2  0  0  0  0
 17  1  1  0  0  0  0
 20 16  1  0  0  0  0
 20 38  1  0  0  0  0
 20 39  1  0  0  0  0
 21 22  1  0  0  0  0
 21 23  1  0  0  0  0
 21 24  1  0  0  0  0
 22 20  1  0  0  0  0
 22 25  1  0  0  0  0
 22 40  1  1  0  0  0
 25 26  2  0  0  0  0
 25 27  1  0  0  0  0
 27 28  1  0  0  0  0
M  END
>  <minimizedAffinity>
-6.52061

$$$$
