L3:Q62645:69000
     RDKit          3D

 34 35  0  0  0  0  0  0  0  0999 V2000
   -3.9549    0.9720    0.9624 N   0  0  0  0  0  0  0  0  0  0  0  0
   -4.1827   -0.4920    1.0896 C   0  0  2  0  0  0  0  0  0  0  0  0
   -3.4061   -1.3221    0.0463 C   0  0  0  0  0  0  0  0  0  0  0  0
   -2.0132   -0.9305   -0.0899 N   0  0  0  0  0  0  0  0  0  0  0  0
   -1.6099    0.0579   -0.9655 C   0  0  0  0  0  0  0  0  0  0  0  0
   -2.4205    0.6322   -1.6926 O   0  0  0  0  0  0  0  0  0  0  0  0
   -0.1866    0.3702   -0.9666 C   0  0  0  0  0  0  0  0  0  0  0  0
    0.4424    1.3381   -1.7254 C   0  0  0  0  0  0  0  0  0  0  0  0
    1.8465    1.3911   -1.4913 C   0  0  0  0  0  0  0  0  0  0  0  0
    2.2691    0.4546   -0.5663 C   0  0  0  0  0  0  0  0  0  0  0  0
    3.6279    0.2111   -0.0592 C   0  0  0  0  0  0  0  0  0  0  0  0
    4.1251   -1.0920    0.1097 C   0  0  0  0  0  0  0  0  0  0  0  0
    5.4239   -1.3094    0.5834 C   0  0  0  0  0  0  0  0  0  0  0  0
    6.2480   -0.2289    0.8921 C   0  0  0  0  0  0  0  0  0  0  0  0
    5.7747    1.0698    0.7241 C   0  0  0  0  0  0  0  0  0  0  0  0
    4.4798    1.2808    0.2511 C   0  0  0  0  0  0  0  0  0  0  0  0
    4.0635    2.5490    0.1073 F   0  0  0  0  0  0  0  0  0  0  0  0
    0.9398   -0.4615    0.0188 S   0  0  0  0  0  0  0  0  0  0  0  0
   -5.6695   -0.8373    0.9646 C   0  0  0  0  0  0  0  0  0  0  0  0
   -6.1405   -1.9452    0.7605 O   0  0  0  0  0  0  0  0  0  0  0  0
   -6.4893    0.2238    1.1464 O   0  0  0  0  0  0  0  0  0  0  0  0
   -3.8758    1.2018   -0.0340 H   0  0  0  0  0  0  0  0  0  0  0  0
   -4.8059    1.4448    1.2810 H   0  0  0  0  0  0  0  0  0  0  0  0
   -3.8688   -0.7765    2.1002 H   0  0  0  0  0  0  0  0  0  0  0  0
   -3.8872   -1.2508   -0.9370 H   0  0  0  0  0  0  0  0  0  0  0  0
   -3.4104   -2.3799    0.3335 H   0  0  0  0  0  0  0  0  0  0  0  0
   -1.3174   -1.3350    0.5229 H   0  0  0  0  0  0  0  0  0  0  0  0
   -0.0903    1.9837   -2.4148 H   0  0  0  0  0  0  0  0  0  0  0  0
    2.5160    2.0875   -1.9832 H   0  0  0  0  0  0  0  0  0  0  0  0
    3.5115   -1.9556   -0.1375 H   0  0  0  0  0  0  0  0  0  0  0  0
    5.7915   -2.3256    0.7073 H   0  0  0  0  0  0  0  0  0  0  0  0
    7.2568   -0.3987    1.2601 H   0  0  0  0  0  0  0  0  0  0  0  0
    6.4031    1.9235    0.9582 H   0  0  0  0  0  0  0  0  0  0  0  0
   -7.3906   -0.1509    1.0527 H   0  0  0  0  0  0  0  0  0  0  0  0
  1  2  1  0
  2  3  1  0
  3  4  1  0
  4  5  1  0
  5  6  2  0
  5  7  1  0
  7  8  2  0
  8  9  1  0
  9 10  2  0
 10 11  1  0
 11 12  2  0
 12 13  1  0
 13 14  2  0
 14 15  1  0
 15 16  2  0
 16 17  1  0
 10 18  1  0
  2 19  1  0
 19 20  2  0
 19 21  1  0
 18  7  1  0
 16 11  1  0
  1 22  1  0
  1 23  1  0
  2 24  1  1
  3 25  1  0
  3 26  1  0
  4 27  1  0
  8 28  1  0
  9 29  1  0
 12 30  1  0
 13 31  1  0
 14 32  1  0
 15 33  1  0
 21 34  1  0
M  END
>  <mol_id>  (1) 
69000

>  <source_index>  (1) 
6

>  <layer>  (1) 
L3

>  <uniprot>  (1) 
Q62645

>  <paff>  (1) 
6.0087999999999999

>  <smiles>  (1) 
N[C@H](CNC(=O)c1ccc(-c2ccccc2F)s1)C(=O)O

$$$$
