L3:Q62645:69000


 25 26  0  0  0  0  0  0  0  0999 V2000
    6.3843   39.3556   12.0237 N   0  0  0  0  0  0  0  0  0  0  0  0
    5.3652   39.4758   12.9473 C   0  0  0  0  0  0  0  0  0  0  0  0
    5.3877   38.8449   14.0042 O   0  0  0  0  0  0  0  0  0  0  0  0
    6.3450   39.9344   11.1950 H   0  0  0  0  0  0  0  0  0  0  0  0
    4.2839   40.3860   12.5926 C   0  0  0  0  0  0  0  0  0  0  0  0
    2.9310   40.1581   12.7533 C   0  0  0  0  0  0  0  0  0  0  0  0
    2.1344   41.2512   12.3067 C   0  0  0  0  0  0  0  0  0  0  0  0
    2.8913   42.2916   11.8008 C   0  0  0  0  0  0  0  0  0  0  0  0
    4.5661   41.9258   11.8992 S   0  0  0  0  0  0  0  0  0  0  0  0
    2.4367   43.5817   11.2607 C   0  0  0  0  0  0  0  0  0  0  0  0
    1.8740   43.6822    9.9773 C   0  0  0  0  0  0  0  0  0  0  0  0
    1.4359   44.9147    9.4796 C   0  0  0  0  0  0  0  0  0  0  0  0
    1.5491   46.0655   10.2573 C   0  0  0  0  0  0  0  0  0  0  0  0
    2.0976   45.9838   11.5346 C   0  0  0  0  0  0  0  0  0  0  0  0
    2.5320   44.7530   12.0259 C   0  0  0  0  0  0  0  0  0  0  0  0
    3.0572   44.7207   13.2610 F   0  0  0  0  0  0  0  0  0  0  0  0
    7.5451   38.5131   12.2578 C   0  0  0  0  0  0  0  0  0  0  0  0
    9.9378   38.4736   11.4351 N   0  0  0  0  0  0  0  0  0  0  0  0
    8.5021   38.4293   11.0504 C   0  0  0  0  0  0  0  0  0  0  0  0
   10.0528   37.9605   12.3157 H   0  0  0  0  0  0  0  0  0  0  0  0
   10.4599   37.9335   10.7387 H   0  0  0  0  0  0  0  0  0  0  0  0
    8.1741   37.1543   10.2680 C   0  0  0  0  0  0  0  0  0  0  0  0
    7.5933   36.1703   10.6984 O   0  0  0  0  0  0  0  0  0  0  0  0
    8.5562   37.2012    8.9707 O   0  0  0  0  0  0  0  0  0  0  0  0
    8.2711   36.3370    8.6055 H   0  0  0  0  0  0  0  0  0  0  0  0
 18 19  1  0  0  0
 19 17  1  0  0  0
 17  1  1  0  0  0
  1  2  1  0  0  0
  2  3  2  0  0  0
  2  5  1  0  0  0
  5  6  2  0  0  0
  6  7  1  0  0  0
  7  8  2  0  0  0
  8 10  1  0  0  0
 10 11  2  0  0  0
 11 12  1  0  0  0
 12 13  2  0  0  0
 13 14  1  0  0  0
 14 15  2  0  0  0
 15 16  1  0  0  0
  8  9  1  0  0  0
 19 22  1  0  0  0
 22 23  2  0  0  0
 22 24  1  0  0  0
  9  5  1  0  0  0
 15 10  1  0  0  0
 18 20  1  0  0  0
 18 21  1  0  0  0
  1  4  1  0  0  0
 24 25  1  0  0  0
M  END
> <minimizedAffinity>
-6.66977

$$$$
