L1:P56524:18572
     RDKit          3D

 49 51  0  0  0  0  0  0  0  0999 V2000
   19.9374   76.4411   40.7216 N   0  0  0  0  0  0  0  0  0  0  0  0
   20.4024   75.8812   41.4354 H   0  0  0  0  0  0  0  0  0  0  0  0
   18.7228   77.0320   41.2974 C   0  0  0  0  0  0  0  0  0  0  0  0
   18.4445   78.5007   40.9292 C   0  0  0  0  0  0  0  0  0  0  0  0
   15.8690   79.4172   42.7279 C   0  0  0  0  0  0  0  0  0  0  0  0
   15.9627   79.1478   41.2706 C   0  0  0  0  0  0  0  0  0  0  0  0
   14.8695   79.2831   40.4515 N   0  0  0  0  0  0  0  0  0  0  0  0
   15.1917   78.9721   39.1531 C   0  0  0  0  0  0  0  0  0  0  0  0
   14.3923   78.9615   38.0033 C   0  0  0  0  0  0  0  0  0  0  0  0
   14.9968   78.5983   36.7968 C   0  0  0  0  0  0  0  0  0  0  0  0
   16.3464   78.2594   36.7461 C   0  0  0  0  0  0  0  0  0  0  0  0
   17.1297   78.2762   37.9062 C   0  0  0  0  0  0  0  0  0  0  0  0
   16.5448   78.6408   39.1373 C   0  0  0  0  0  0  0  0  0  0  0  0
   17.0365   78.7646   40.4803 C   0  0  0  0  0  0  0  0  0  0  0  0
   13.9486   79.5662   40.7547 H   0  0  0  0  0  0  0  0  0  0  0  0
   20.8815   77.4434   40.2310 C   0  0  0  0  0  0  0  0  0  0  0  0
   20.7609   77.6214   38.7329 C   0  0  0  0  0  0  0  0  0  0  0  0
   20.7054   78.9012   38.1668 C   0  0  0  0  0  0  0  0  0  0  0  0
   20.5758   79.0622   36.7829 C   0  0  0  0  0  0  0  0  0  0  0  0
   20.4862   77.9493   35.9388 C   0  0  0  0  0  0  0  0  0  0  0  0
   20.5535   76.6699   36.5017 C   0  0  0  0  0  0  0  0  0  0  0  0
   20.6800   76.5082   37.8846 C   0  0  0  0  0  0  0  0  0  0  0  0
   20.3814   78.1631   34.4886 C   0  0  0  0  0  0  0  0  0  0  0  0
   20.0861   79.3522   33.9407 C   0  0  0  0  0  0  0  0  0  0  0  0
   19.9524   79.5872   32.4838 C   0  0  0  0  0  0  0  0  0  0  0  0
   19.0894   79.0075   31.8303 O   0  0  0  0  0  0  0  0  0  0  0  0
   20.7767   80.5384   31.9433 N   0  0  0  0  0  0  0  0  0  0  0  0
   20.4752   80.9167   30.6124 O   0  0  0  0  0  0  0  0  0  0  0  0
   21.2432   81.2370   32.5093 H   0  0  0  0  0  0  0  0  0  0  0  0
   19.7266   80.3198   30.3898 H   0  0  0  0  0  0  0  0  0  0  0  0
   17.8880   76.4487   40.9690 H   0  0  0  0  0  0  0  0  0  0  0  0
   18.8738   77.0247   42.3567 H   0  0  0  0  0  0  0  0  0  0  0  0
   18.6418   79.1058   41.7893 H   0  0  0  0  0  0  0  0  0  0  0  0
   19.0811   78.7371   40.1023 H   0  0  0  0  0  0  0  0  0  0  0  0
   14.8651   79.6920   42.9760 H   0  0  0  0  0  0  0  0  0  0  0  0
   16.5318   80.2165   42.9862 H   0  0  0  0  0  0  0  0  0  0  0  0
   16.1426   78.5372   43.2716 H   0  0  0  0  0  0  0  0  0  0  0  0
   13.3923   79.2130   38.0455 H   0  0  0  0  0  0  0  0  0  0  0  0
   14.4351   78.5810   35.9313 H   0  0  0  0  0  0  0  0  0  0  0  0
   16.7732   77.9934   35.8449 H   0  0  0  0  0  0  0  0  0  0  0  0
   18.1292   78.0234   37.8612 H   0  0  0  0  0  0  0  0  0  0  0  0
   21.8771   77.1298   40.4662 H   0  0  0  0  0  0  0  0  0  0  0  0
   20.6591   78.3779   40.7024 H   0  0  0  0  0  0  0  0  0  0  0  0
   20.7606   79.7327   38.7756 H   0  0  0  0  0  0  0  0  0  0  0  0
   20.5460   80.0119   36.3802 H   0  0  0  0  0  0  0  0  0  0  0  0
   20.5094   75.8391   35.8911 H   0  0  0  0  0  0  0  0  0  0  0  0
   20.7142   75.5580   38.2858 H   0  0  0  0  0  0  0  0  0  0  0  0
   20.5427   77.3599   33.8610 H   0  0  0  0  0  0  0  0  0  0  0  0
   19.9430   80.1540   34.5745 H   0  0  0  0  0  0  0  0  0  0  0  0
  1 16  1  0
  1  2  1  0
  3  1  1  0
  3 31  1  0
  3 32  1  0
  4  3  1  0
  4 33  1  0
  4 34  1  0
  5  6  1  0
  5 35  1  0
  5 36  1  0
  5 37  1  0
  6  7  1  0
  7  8  1  0
  7 15  1  0
  8  9  2  0
  9 10  1  0
  9 38  1  0
 10 11  2  0
 10 39  1  0
 11 12  1  0
 11 40  1  0
 12 13  2  0
 12 41  1  0
 13 14  1  0
 13  8  1  0
 14  4  1  0
 14  6  2  0
 16 17  1  0
 16 42  1  0
 16 43  1  0
 17 18  2  0
 18 19  1  0
 18 44  1  0
 19 20  2  0
 19 45  1  0
 20 23  1  0
 20 21  1  0
 21 22  2  0
 21 46  1  0
 22 17  1  0
 22 47  1  0
 23 24  2  0
 23 48  1  0
 24 25  1  0
 24 49  1  0
 25 26  2  0
 25 27  1  0
 27 28  1  0
 27 29  1  0
 28 30  1  0
M  END
>  <minimizedAffinity>  (1) 
-7.57121

>  <mol_id>  (1) 
18572

>  <source_index>  (1) 
0

>  <layer>  (1) 
L1

>  <uniprot>  (1) 
P56524

>  <paff>  (1) 
6.9207999999999998

>  <smiles>  (1) 
Cc1[nH]c2ccccc2c1CCNCc1ccc(/C=C/C(=O)NO)cc1

$$$$
L1:P56524:18592
     RDKit          3D

 63 64  0  0  0  0  0  0  0  0999 V2000
   20.9499   75.1805   37.7779 C   0  0  0  0  0  0  0  0  0  0  0  0
   21.2294   75.6260   39.0737 C   0  0  0  0  0  0  0  0  0  0  0  0
   21.1317   76.9799   39.3979 C   0  0  0  0  0  0  0  0  0  0  0  0
   20.7446   77.9078   38.4317 C   0  0  0  0  0  0  0  0  0  0  0  0
   20.4198   77.4685   37.1327 C   0  0  0  0  0  0  0  0  0  0  0  0
   20.5285   76.1124   36.8159 C   0  0  0  0  0  0  0  0  0  0  0  0
   20.0028   78.4546   36.2129 N   0  0  0  0  0  0  0  0  0  0  0  0
   18.7320   78.9528   36.0096 C   0  0  0  0  0  0  0  0  0  0  0  0
   17.7135   78.6497   36.6253 O   0  0  0  0  0  0  0  0  0  0  0  0
   20.7722   78.8923   35.7125 H   0  0  0  0  0  0  0  0  0  0  0  0
   18.7101   79.9824   34.8906 C   0  0  0  0  0  0  0  0  0  0  0  0
   18.6749   79.3337   33.5139 C   0  0  0  0  0  0  0  0  0  0  0  0
   19.8548   79.7785   32.6819 C   0  0  0  0  0  0  0  0  0  0  0  0
   20.0591   79.3688   31.5392 O   0  0  0  0  0  0  0  0  0  0  0  0
   20.6624   80.7197   33.2986 N   0  0  0  0  0  0  0  0  0  0  0  0
   21.6955   81.2044   32.4443 O   0  0  0  0  0  0  0  0  0  0  0  0
   20.1682   81.4613   33.8017 H   0  0  0  0  0  0  0  0  0  0  0  0
   21.4807   80.7617   31.5892 H   0  0  0  0  0  0  0  0  0  0  0  0
   20.6270   79.2629   38.6446 O   0  0  0  0  0  0  0  0  0  0  0  0
   19.8712   79.6740   39.7785 C   0  0  0  0  0  0  0  0  0  0  0  0
   21.0988   73.7241   37.4151 C   0  0  0  0  0  0  0  0  0  0  0  0
   19.8865   72.7060   38.2534 S   0  0  0  0  0  0  0  0  0  0  0  0
   18.6657   73.4754   38.4183 O   0  0  0  0  0  0  0  0  0  0  0  0
   20.5429   72.1564   39.4295 O   0  0  0  0  0  0  0  0  0  0  0  0
   18.9700   71.6805   35.9629 C   0  0  0  0  0  0  0  0  0  0  0  0
   19.5594   71.4158   37.1380 C   0  0  0  0  0  0  0  0  0  0  0  0
   18.1072   68.6995   32.9824 C   0  0  0  0  0  0  0  0  0  0  0  0
   19.3502   69.3303   32.9762 C   0  0  0  0  0  0  0  0  0  0  0  0
   19.6480   70.3184   33.9284 C   0  0  0  0  0  0  0  0  0  0  0  0
   18.7012   70.6647   34.9183 C   0  0  0  0  0  0  0  0  0  0  0  0
   17.4499   70.0066   34.9270 C   0  0  0  0  0  0  0  0  0  0  0  0
   17.1659   69.0402   33.9575 C   0  0  0  0  0  0  0  0  0  0  0  0
   16.4717   67.9983   31.3938 C   0  0  0  0  0  0  0  0  0  0  0  0
   17.6826   67.7436   32.1000 O   0  0  0  0  0  0  0  0  0  0  0  0
   20.8782   70.9295   33.9810 O   0  0  0  0  0  0  0  0  0  0  0  0
   21.9331   70.1482   34.5381 C   0  0  0  0  0  0  0  0  0  0  0  0
   16.5755   70.3691   35.9239 O   0  0  0  0  0  0  0  0  0  0  0  0
   15.3141   69.7153   35.9641 C   0  0  0  0  0  0  0  0  0  0  0  0
   21.5108   74.9466   39.7977 H   0  0  0  0  0  0  0  0  0  0  0  0
   21.3468   77.2956   40.3566 H   0  0  0  0  0  0  0  0  0  0  0  0
   20.2962   75.7915   35.8630 H   0  0  0  0  0  0  0  0  0  0  0  0
   19.5883   80.5893   34.9633 H   0  0  0  0  0  0  0  0  0  0  0  0
   17.8218   80.5687   35.0006 H   0  0  0  0  0  0  0  0  0  0  0  0
   17.7696   79.6138   33.0170 H   0  0  0  0  0  0  0  0  0  0  0  0
   18.7202   78.2714   33.6337 H   0  0  0  0  0  0  0  0  0  0  0  0
   19.8572   80.7427   39.8294 H   0  0  0  0  0  0  0  0  0  0  0  0
   20.3187   79.2804   40.6672 H   0  0  0  0  0  0  0  0  0  0  0  0
   18.8695   79.3080   39.6913 H   0  0  0  0  0  0  0  0  0  0  0  0
   20.9720   73.6152   36.3582 H   0  0  0  0  0  0  0  0  0  0  0  0
   22.0728   73.4022   37.7193 H   0  0  0  0  0  0  0  0  0  0  0  0
   18.6853   72.6543   35.7740 H   0  0  0  0  0  0  0  0  0  0  0  0
   19.8183   70.4464   37.3792 H   0  0  0  0  0  0  0  0  0  0  0  0
   20.0548   69.0699   32.2686 H   0  0  0  0  0  0  0  0  0  0  0  0
   16.2467   68.5711   33.9620 H   0  0  0  0  0  0  0  0  0  0  0  0
   16.2587   67.1761   30.7430 H   0  0  0  0  0  0  0  0  0  0  0  0
   16.5772   68.8926   30.8159 H   0  0  0  0  0  0  0  0  0  0  0  0
   15.6698   68.1175   32.0922 H   0  0  0  0  0  0  0  0  0  0  0  0
   22.8398   70.7162   34.5307 H   0  0  0  0  0  0  0  0  0  0  0  0
   22.0642   69.2596   33.9567 H   0  0  0  0  0  0  0  0  0  0  0  0
   21.6868   69.8826   35.5449 H   0  0  0  0  0  0  0  0  0  0  0  0
   14.7419   70.0944   36.7850 H   0  0  0  0  0  0  0  0  0  0  0  0
   15.4617   68.6628   36.0881 H   0  0  0  0  0  0  0  0  0  0  0  0
   14.7891   69.8966   35.0495 H   0  0  0  0  0  0  0  0  0  0  0  0
  1  2  2  0
  2  3  1  0
  2 39  1  0
  3  4  2  0
  3 40  1  0
  4 19  1  0
  4  5  1  0
  5  7  1  0
  5  6  2  0
  6  1  1  0
  6 41  1  0
  7  8  1  0
  7 10  1  0
  8  9  2  0
  8 11  1  0
 11 12  1  0
 11 42  1  0
 11 43  1  0
 12 13  1  0
 12 44  1  0
 12 45  1  0
 13 14  2  0
 13 15  1  0
 15 16  1  0
 15 17  1  0
 16 18  1  0
 19 20  1  0
 20 46  1  0
 20 47  1  0
 20 48  1  0
 21  1  1  0
 21 49  1  0
 21 50  1  0
 22 23  2  0
 22 24  2  0
 22 21  1  0
 25 26  2  0
 25 51  1  0
 26 22  1  0
 26 52  1  0
 27 28  2  0
 28 29  1  0
 28 53  1  0
 29 35  1  0
 29 30  2  0
 30 25  1  0
 30 31  1  0
 31 37  1  0
 31 32  2  0
 32 27  1  0
 32 54  1  0
 33 34  1  0
 33 55  1  0
 33 56  1  0
 33 57  1  0
 34 27  1  0
 35 36  1  0
 36 58  1  0
 36 59  1  0
 36 60  1  0
 37 38  1  0
 38 61  1  0
 38 62  1  0
 38 63  1  0
M  END
>  <minimizedAffinity>  (2) 
-6.65999

>  <mol_id>  (2) 
18592

>  <source_index>  (2) 
1

>  <layer>  (2) 
L1

>  <uniprot>  (2) 
P56524

>  <paff>  (2) 
7.0757000000000003

>  <smiles>  (2) 
COc1cc(OC)c(/C=C/S(=O)(=O)Cc2ccc(OC)c(NC(=O)CCC(=O)NO)c2)c(OC)c1

$$$$
L1:P56524:18610
     RDKit          3D

 61 63  0  0  0  0  0  0  0  0999 V2000
   20.2909   77.7682   37.1536 C   0  0  0  0  0  0  0  0  0  0  0  0
   20.5335   76.4684   37.3783 C   0  0  0  0  0  0  0  0  0  0  0  0
   21.0836   76.0528   38.6765 C   0  0  0  0  0  0  0  0  0  0  0  0
   21.3351   74.8776   38.9050 O   0  0  0  0  0  0  0  0  0  0  0  0
   21.3125   77.1116   39.6684 C   0  0  0  0  0  0  0  0  0  0  0  0
   21.8167   76.7943   40.9378 C   0  0  0  0  0  0  0  0  0  0  0  0
   22.0305   77.8113   41.8667 C   0  0  0  0  0  0  0  0  0  0  0  0
   21.7386   79.1358   41.5157 C   0  0  0  0  0  0  0  0  0  0  0  0
   21.2282   79.4361   40.2529 C   0  0  0  0  0  0  0  0  0  0  0  0
   20.9307   80.7273   39.9204 O   0  0  0  0  0  0  0  0  0  0  0  0
   21.0150   78.4246   39.3185 C   0  0  0  0  0  0  0  0  0  0  0  0
   20.5173   78.7682   38.0872 O   0  0  0  0  0  0  0  0  0  0  0  0
   21.0909   81.2992   40.6888 H   0  0  0  0  0  0  0  0  0  0  0  0
   18.6213   79.1981   33.4451 C   0  0  0  0  0  0  0  0  0  0  0  0
   17.9091   79.2997   34.6403 C   0  0  0  0  0  0  0  0  0  0  0  0
   18.4541   78.8323   35.8410 C   0  0  0  0  0  0  0  0  0  0  0  0
   19.7293   78.2523   35.8732 C   0  0  0  0  0  0  0  0  0  0  0  0
   20.4477   78.1786   34.6708 C   0  0  0  0  0  0  0  0  0  0  0  0
   19.8993   78.6452   33.4676 C   0  0  0  0  0  0  0  0  0  0  0  0
   17.9640   79.6794   32.3496 O   0  0  0  0  0  0  0  0  0  0  0  0
   16.7639   79.0263   31.9212 C   0  0  0  0  0  0  0  0  0  0  0  0
   15.6589   80.0342   31.5622 C   0  0  0  0  0  0  0  0  0  0  0  0
   14.4054   80.1811   33.6201 C   0  0  0  0  0  0  0  0  0  0  0  0
   15.3124   80.8741   32.7189 N   0  0  0  0  0  0  0  0  0  0  0  0
   16.1731   81.1152   33.2141 H   0  0  0  0  0  0  0  0  0  0  0  0
   22.5227   77.6640   43.1318 O   0  0  0  0  0  0  0  0  0  0  0  0
   22.2220   76.4747   43.8625 C   0  0  0  0  0  0  0  0  0  0  0  0
   21.1017   76.6854   44.8822 C   0  0  0  0  0  0  0  0  0  0  0  0
   19.6737   76.5108   44.3559 C   0  0  0  0  0  0  0  0  0  0  0  0
   19.0108   77.7608   43.7683 C   0  0  0  0  0  0  0  0  0  0  0  0
   17.8247   77.5007   42.8421 C   0  0  0  0  0  0  0  0  0  0  0  0
   17.7777   78.4193   41.6372 C   0  0  0  0  0  0  0  0  0  0  0  0
   17.8615   79.6450   41.6826 O   0  0  0  0  0  0  0  0  0  0  0  0
   17.6133   77.7447   40.4453 N   0  0  0  0  0  0  0  0  0  0  0  0
   17.7090   78.5537   39.2865 O   0  0  0  0  0  0  0  0  0  0  0  0
   17.9102   76.7793   40.3323 H   0  0  0  0  0  0  0  0  0  0  0  0
   17.8411   79.4525   39.6670 H   0  0  0  0  0  0  0  0  0  0  0  0
   20.3360   75.7673   36.6473 H   0  0  0  0  0  0  0  0  0  0  0  0
   22.0281   75.8143   41.1827 H   0  0  0  0  0  0  0  0  0  0  0  0
   21.9023   79.8943   42.1960 H   0  0  0  0  0  0  0  0  0  0  0  0
   16.9687   79.7248   34.6387 H   0  0  0  0  0  0  0  0  0  0  0  0
   17.9101   78.9157   36.7140 H   0  0  0  0  0  0  0  0  0  0  0  0
   21.3969   77.7737   34.6717 H   0  0  0  0  0  0  0  0  0  0  0  0
   20.4454   78.5786   32.5945 H   0  0  0  0  0  0  0  0  0  0  0  0
   16.9827   78.4313   31.0592 H   0  0  0  0  0  0  0  0  0  0  0  0
   16.4100   78.4201   32.7288 H   0  0  0  0  0  0  0  0  0  0  0  0
   16.0026   80.6607   30.7658 H   0  0  0  0  0  0  0  0  0  0  0  0
   14.7870   79.4907   31.2634 H   0  0  0  0  0  0  0  0  0  0  0  0
   13.5058   79.9306   33.0977 H   0  0  0  0  0  0  0  0  0  0  0  0
   14.1715   80.8163   34.4488 H   0  0  0  0  0  0  0  0  0  0  0  0
   14.8715   79.2865   33.9769 H   0  0  0  0  0  0  0  0  0  0  0  0
   23.1030   76.1574   44.3803 H   0  0  0  0  0  0  0  0  0  0  0  0
   21.8917   75.7360   43.1624 H   0  0  0  0  0  0  0  0  0  0  0  0
   21.1902   77.6807   45.2650 H   0  0  0  0  0  0  0  0  0  0  0  0
   21.2337   75.9201   45.6183 H   0  0  0  0  0  0  0  0  0  0  0  0
   19.0660   76.1704   45.1681 H   0  0  0  0  0  0  0  0  0  0  0  0
   19.7511   75.8193   43.5430 H   0  0  0  0  0  0  0  0  0  0  0  0
   19.7517   78.2969   43.2129 H   0  0  0  0  0  0  0  0  0  0  0  0
   18.6194   78.3057   44.6018 H   0  0  0  0  0  0  0  0  0  0  0  0
   16.9231   77.6332   43.4029 H   0  0  0  0  0  0  0  0  0  0  0  0
   17.9321   76.5032   42.4701 H   0  0  0  0  0  0  0  0  0  0  0  0
  1  2  2  0
  2  3  1  0
  2 38  1  0
  3  4  2  0
  3  5  1  0
  5  6  2  0
  6  7  1  0
  6 39  1  0
  7 26  1  0
  7  8  2  0
  8  9  1  0
  8 40  1  0
  9 10  1  0
  9 11  2  0
 10 13  1  0
 11 12  1  0
 11  5  1  0
 12  1  1  0
 14 15  2  0
 15 16  1  0
 15 41  1  0
 16 17  2  0
 16 42  1  0
 17  1  1  0
 17 18  1  0
 18 19  2  0
 18 43  1  0
 19 14  1  0
 19 44  1  0
 20 14  1  0
 21 20  1  0
 21 45  1  0
 21 46  1  0
 22 21  1  0
 22 47  1  0
 22 48  1  0
 23 24  1  0
 23 49  1  0
 23 50  1  0
 23 51  1  0
 24 22  1  0
 24 25  1  0
 26 27  1  0
 27 28  1  0
 27 52  1  0
 27 53  1  0
 28 29  1  0
 28 54  1  0
 28 55  1  0
 29 30  1  0
 29 56  1  0
 29 57  1  0
 30 31  1  0
 30 58  1  0
 30 59  1  0
 31 32  1  0
 31 60  1  0
 31 61  1  0
 32 33  2  0
 32 34  1  0
 34 35  1  0
 34 36  1  0
 35 37  1  0
M  END
>  <minimizedAffinity>  (3) 
-6.22324

>  <mol_id>  (3) 
18610

>  <source_index>  (3) 
2

>  <layer>  (3) 
L1

>  <uniprot>  (3) 
P56524

>  <paff>  (3) 
7.5228999999999999

>  <smiles>  (3) 
CNCCOc1ccc(-c2cc(=O)c3cc(OCCCCCC(=O)NO)cc(O)c3o2)cc1

$$$$
L1:P56524:18611
     RDKit          3D

 48 48  0  0  0  0  0  0  0  0999 V2000
   19.6972   79.3734   34.0275 C   0  0  1  0  0  0  0  0  0  0  0  0
   19.9457   79.6984   32.5448 C   0  0  0  0  0  0  0  0  0  0  0  0
   19.6873   78.9278   31.6179 O   0  0  0  0  0  0  0  0  0  0  0  0
   20.5413   80.9245   32.3200 N   0  0  0  0  0  0  0  0  0  0  0  0
   20.6784   81.2582   30.9474 O   0  0  0  0  0  0  0  0  0  0  0  0
   20.3276   81.7090   32.9298 H   0  0  0  0  0  0  0  0  0  0  0  0
   20.3094   80.4665   30.4951 H   0  0  0  0  0  0  0  0  0  0  0  0
   17.4611   80.3879   34.2340 C   0  0  0  0  0  0  0  0  0  0  0  0
   17.9400   81.5163   34.1823 O   0  0  0  0  0  0  0  0  0  0  0  0
   18.2578   79.2618   34.2551 N   0  0  0  0  0  0  0  0  0  0  0  0
   17.8367   78.4143   33.8858 H   0  0  0  0  0  0  0  0  0  0  0  0
   15.9541   80.0891   34.2230 C   0  0  0  0  0  0  0  0  0  0  0  0
   15.3395   80.2741   32.8196 C   0  0  0  0  0  0  0  0  0  0  0  0
   15.0534   78.4190   31.0894 C   0  0  0  0  0  0  0  0  0  0  0  0
   15.9917   79.4449   31.7068 C   0  0  0  0  0  0  0  0  0  0  0  0
   15.6193   78.7365   34.8936 C   0  0  0  0  0  0  0  0  0  0  0  0
   14.1741   78.2244   34.8101 C   0  0  0  0  0  0  0  0  0  0  0  0
   14.0135   76.8421   34.2023 C   0  0  0  0  0  0  0  0  0  0  0  0
   20.4626   78.1129   34.4661 C   0  0  0  0  0  0  0  0  0  0  0  0
   20.5397   77.9012   35.9618 C   0  0  0  0  0  0  0  0  0  0  0  0
   20.5836   78.9925   36.8392 C   0  0  0  0  0  0  0  0  0  0  0  0
   20.6792   78.7880   38.2166 C   0  0  0  0  0  0  0  0  0  0  0  0
   20.7295   77.4936   38.7303 C   0  0  0  0  0  0  0  0  0  0  0  0
   20.6833   76.4009   37.8675 C   0  0  0  0  0  0  0  0  0  0  0  0
   20.5885   76.6027   36.4902 C   0  0  0  0  0  0  0  0  0  0  0  0
   20.0757   80.1685   34.6353 H   0  0  0  0  0  0  0  0  0  0  0  0
   15.4746   80.8229   34.8367 H   0  0  0  0  0  0  0  0  0  0  0  0
   14.3059   80.0024   32.8724 H   0  0  0  0  0  0  0  0  0  0  0  0
   15.4991   81.2994   32.5583 H   0  0  0  0  0  0  0  0  0  0  0  0
   15.5699   77.8783   30.3241 H   0  0  0  0  0  0  0  0  0  0  0  0
   14.2082   78.9189   30.6644 H   0  0  0  0  0  0  0  0  0  0  0  0
   14.7221   77.7382   31.8454 H   0  0  0  0  0  0  0  0  0  0  0  0
   16.3209   80.1104   30.9364 H   0  0  0  0  0  0  0  0  0  0  0  0
   16.8031   78.9054   32.1489 H   0  0  0  0  0  0  0  0  0  0  0  0
   15.8645   78.8273   35.9312 H   0  0  0  0  0  0  0  0  0  0  0  0
   16.1879   78.0181   34.3409 H   0  0  0  0  0  0  0  0  0  0  0  0
   13.6118   78.9146   34.2165 H   0  0  0  0  0  0  0  0  0  0  0  0
   13.8268   78.1479   35.8193 H   0  0  0  0  0  0  0  0  0  0  0  0
   14.3475   76.8584   33.1859 H   0  0  0  0  0  0  0  0  0  0  0  0
   12.9830   76.5558   34.2345 H   0  0  0  0  0  0  0  0  0  0  0  0
   14.5968   76.1381   34.7582 H   0  0  0  0  0  0  0  0  0  0  0  0
   21.4614   78.1826   34.0886 H   0  0  0  0  0  0  0  0  0  0  0  0
   19.9178   77.2799   34.0734 H   0  0  0  0  0  0  0  0  0  0  0  0
   20.5450   79.9534   36.4648 H   0  0  0  0  0  0  0  0  0  0  0  0
   20.7127   79.5973   38.8561 H   0  0  0  0  0  0  0  0  0  0  0  0
   20.8009   77.3446   39.7490 H   0  0  0  0  0  0  0  0  0  0  0  0
   20.7192   75.4419   38.2471 H   0  0  0  0  0  0  0  0  0  0  0  0
   20.5540   75.7900   35.8550 H   0  0  0  0  0  0  0  0  0  0  0  0
  1 19  1  0
  1  2  1  0
  1 26  1  1
  2  3  2  0
  2  4  1  0
  4  5  1  0
  4  6  1  0
  5  7  1  0
  8  9  2  0
  8 10  1  0
 10  1  1  0
 10 11  1  0
 12 16  1  0
 12  8  1  0
 12 27  1  0
 13 12  1  0
 13 28  1  0
 13 29  1  0
 14 15  1  0
 14 30  1  0
 14 31  1  0
 14 32  1  0
 15 13  1  0
 15 33  1  0
 15 34  1  0
 16 17  1  0
 16 35  1  0
 16 36  1  0
 17 18  1  0
 17 37  1  0
 17 38  1  0
 18 39  1  0
 18 40  1  0
 18 41  1  0
 19 20  1  0
 19 42  1  0
 19 43  1  0
 20 21  2  0
 21 22  1  0
 21 44  1  0
 22 23  2  0
 22 45  1  0
 23 24  1  0
 23 46  1  0
 24 25  2  0
 24 47  1  0
 25 20  1  0
 25 48  1  0
M  END
>  <minimizedAffinity>  (4) 
-7.30789

>  <mol_id>  (4) 
18611

>  <source_index>  (4) 
3

>  <layer>  (4) 
L1

>  <uniprot>  (4) 
P56524

>  <paff>  (4) 
8.5375999999999994

>  <smiles>  (4) 
CCCC(CCC)C(=O)N[C@@H](Cc1ccccc1)C(=O)NO

$$$$
L1:P56524:18653
     RDKit          3D

 42 42  0  0  0  0  0  0  0  0999 V2000
   20.4366   77.9496   35.5615 C   0  0  0  0  0  0  0  0  0  0  0  0
   20.4157   78.0801   37.0849 C   0  0  0  0  0  0  0  0  0  0  0  0
   20.7937   76.7609   37.7606 C   0  0  0  0  0  0  0  0  0  0  0  0
   21.0874   76.9610   39.2493 C   0  0  0  0  0  0  0  0  0  0  0  0
   19.8596   77.5049   39.9868 C   0  0  0  0  0  0  0  0  0  0  0  0
   21.4682   79.0195   42.1091 C   0  0  0  0  0  0  0  0  0  0  0  0
   20.1060   79.1910   40.8384 Si  0  0  0  0  0  4  0  0  0  0  0  0
   18.6900   79.6838   41.5579 O   0  0  0  0  0  0  0  0  0  0  0  0
   20.5077   80.3416   39.7062 O   0  0  0  0  0  0  0  0  0  0  0  0
   18.3250   79.1112   42.2493 H   0  0  0  0  0  0  0  0  0  0  0  0
   21.3055   80.1804   39.1799 H   0  0  0  0  0  0  0  0  0  0  0  0
   20.8538   79.2596   34.8954 C   0  0  0  0  0  0  0  0  0  0  0  0
   19.7514   79.8477   34.0254 C   0  0  0  0  0  0  0  0  0  0  0  0
   19.9666   80.7421   33.2163 O   0  0  0  0  0  0  0  0  0  0  0  0
   18.5327   79.2386   34.2812 N   0  0  0  0  0  0  0  0  0  0  0  0
   18.5282   78.5119   34.9853 H   0  0  0  0  0  0  0  0  0  0  0  0
   17.2890   79.5125   33.6751 C   0  0  0  0  0  0  0  0  0  0  0  0
   17.0796   79.0007   32.3871 C   0  0  0  0  0  0  0  0  0  0  0  0
   15.8748   79.2264   31.7157 C   0  0  0  0  0  0  0  0  0  0  0  0
   14.8666   79.9665   32.3261 C   0  0  0  0  0  0  0  0  0  0  0  0
   15.0650   80.4792   33.6056 C   0  0  0  0  0  0  0  0  0  0  0  0
   16.2711   80.2533   34.2777 C   0  0  0  0  0  0  0  0  0  0  0  0
   19.4578   77.6825   35.2215 H   0  0  0  0  0  0  0  0  0  0  0  0
   21.1490   77.1960   35.2979 H   0  0  0  0  0  0  0  0  0  0  0  0
   21.1139   78.8354   37.3797 H   0  0  0  0  0  0  0  0  0  0  0  0
   19.4237   78.3428   37.3879 H   0  0  0  0  0  0  0  0  0  0  0  0
   19.9828   76.0708   37.6553 H   0  0  0  0  0  0  0  0  0  0  0  0
   21.6773   76.3825   37.2906 H   0  0  0  0  0  0  0  0  0  0  0  0
   21.3656   76.0217   39.6797 H   0  0  0  0  0  0  0  0  0  0  0  0
   21.8829   77.6700   39.3459 H   0  0  0  0  0  0  0  0  0  0  0  0
   19.0649   77.6054   39.2774 H   0  0  0  0  0  0  0  0  0  0  0  0
   19.6488   76.8054   40.7686 H   0  0  0  0  0  0  0  0  0  0  0  0
   21.6202   79.9590   42.5980 H   0  0  0  0  0  0  0  0  0  0  0  0
   22.3733   78.7196   41.6235 H   0  0  0  0  0  0  0  0  0  0  0  0
   21.1903   78.2818   42.8326 H   0  0  0  0  0  0  0  0  0  0  0  0
   21.7123   79.0755   34.2838 H   0  0  0  0  0  0  0  0  0  0  0  0
   21.0675   79.9652   35.6709 H   0  0  0  0  0  0  0  0  0  0  0  0
   17.8235   78.4510   31.9294 H   0  0  0  0  0  0  0  0  0  0  0  0
   15.7328   78.8444   30.7676 H   0  0  0  0  0  0  0  0  0  0  0  0
   13.9759   80.1346   31.8327 H   0  0  0  0  0  0  0  0  0  0  0  0
   14.3188   81.0284   34.0602 H   0  0  0  0  0  0  0  0  0  0  0  0
   16.4091   80.6371   35.2257 H   0  0  0  0  0  0  0  0  0  0  0  0
  1 12  1  0
  1 23  1  0
  1 24  1  0
  2  1  1  0
  2 25  1  0
  2 26  1  0
  3  2  1  0
  3 27  1  0
  3 28  1  0
  4  3  1  0
  4 29  1  0
  4 30  1  0
  5  4  1  0
  5 31  1  0
  5 32  1  0
  6  7  1  0
  6 33  1  0
  6 34  1  0
  6 35  1  0
  7  8  1  0
  7  9  1  0
  7  5  1  0
  8 10  1  0
  9 11  1  0
 12 13  1  0
 12 36  1  0
 12 37  1  0
 13 14  2  0
 13 15  1  0
 15 17  1  0
 15 16  1  0
 17 18  2  0
 18 19  1  0
 18 38  1  0
 19 20  2  0
 19 39  1  0
 20 21  1  0
 20 40  1  0
 21 22  2  0
 21 41  1  0
 22 17  1  0
 22 42  1  0
M  END
>  <minimizedAffinity>  (5) 
-6.09652

>  <mol_id>  (5) 
18653

>  <source_index>  (5) 
4

>  <layer>  (5) 
L1

>  <uniprot>  (5) 
P56524

>  <paff>  (5) 
6.2218

>  <smiles>  (5) 
C[Si](O)(O)CCCCCCC(=O)Nc1ccccc1

$$$$
L1:P56524:18661
     RDKit          3D

 39 41  0  0  0  0  0  0  0  0999 V2000
   20.3989   77.8755   36.2762 C   0  0  0  0  0  0  0  0  0  0  0  0
   20.5394   78.7660   37.3464 C   0  0  0  0  0  0  0  0  0  0  0  0
   20.8164   78.2936   38.6332 C   0  0  0  0  0  0  0  0  0  0  0  0
   20.9665   76.9212   38.8757 C   0  0  0  0  0  0  0  0  0  0  0  0
   20.8498   76.0331   37.7994 C   0  0  0  0  0  0  0  0  0  0  0  0
   20.5727   76.5071   36.5129 C   0  0  0  0  0  0  0  0  0  0  0  0
   20.4711   79.5410   34.4398 C   0  0  0  0  0  0  0  0  0  0  0  0
   20.1328   78.3287   34.9050 C   0  0  0  0  0  0  0  0  0  0  0  0
   19.2669   79.3533   32.3819 O   0  0  0  0  0  0  0  0  0  0  0  0
   20.1373   79.9091   33.0439 C   0  0  0  0  0  0  0  0  0  0  0  0
   20.9053   80.9282   32.5490 N   0  0  0  0  0  0  0  0  0  0  0  0
   20.6913   81.2789   31.1974 O   0  0  0  0  0  0  0  0  0  0  0  0
   21.6931   81.3587   33.0173 H   0  0  0  0  0  0  0  0  0  0  0  0
   19.9764   80.6585   30.9323 H   0  0  0  0  0  0  0  0  0  0  0  0
   21.2635   76.4168   40.2696 C   0  0  0  0  0  0  0  0  0  0  0  0
   20.8282   77.3298   41.3023 N   0  0  0  0  0  0  0  0  0  0  0  0
   19.4948   77.4728   41.6948 C   0  0  0  0  0  0  0  0  0  0  0  0
   18.5233   76.8942   41.2319 O   0  0  0  0  0  0  0  0  0  0  0  0
   19.4572   78.4966   42.8316 C   0  0  0  0  0  0  0  0  0  0  0  0
   20.9024   78.8537   42.9946 C   0  0  0  0  0  0  0  0  0  0  0  0
   21.4855   79.7369   43.8875 C   0  0  0  0  0  0  0  0  0  0  0  0
   22.8723   79.8887   43.8362 C   0  0  0  0  0  0  0  0  0  0  0  0
   23.7222   81.0814   45.0338 Br  0  0  0  0  0  0  0  0  0  0  0  0
   23.6486   79.1714   42.9107 C   0  0  0  0  0  0  0  0  0  0  0  0
   23.0438   78.2832   42.0144 C   0  0  0  0  0  0  0  0  0  0  0  0
   21.6703   78.1384   42.0738 C   0  0  0  0  0  0  0  0  0  0  0  0
   20.4377   79.7802   37.1847 H   0  0  0  0  0  0  0  0  0  0  0  0
   20.9114   78.9629   39.4130 H   0  0  0  0  0  0  0  0  0  0  0  0
   20.9693   75.0202   37.9567 H   0  0  0  0  0  0  0  0  0  0  0  0
   20.4955   75.8401   35.7292 H   0  0  0  0  0  0  0  0  0  0  0  0
   20.9610   80.2131   35.0508 H   0  0  0  0  0  0  0  0  0  0  0  0
   19.6578   77.6766   34.2614 H   0  0  0  0  0  0  0  0  0  0  0  0
   22.3198   76.2738   40.3632 H   0  0  0  0  0  0  0  0  0  0  0  0
   20.7248   75.5018   40.4018 H   0  0  0  0  0  0  0  0  0  0  0  0
   19.0621   78.0652   43.7275 H   0  0  0  0  0  0  0  0  0  0  0  0
   18.8303   79.3391   42.6262 H   0  0  0  0  0  0  0  0  0  0  0  0
   20.9151   80.2643   44.5669 H   0  0  0  0  0  0  0  0  0  0  0  0
   24.6723   79.3005   42.8917 H   0  0  0  0  0  0  0  0  0  0  0  0
   23.6056   77.7527   41.3303 H   0  0  0  0  0  0  0  0  0  0  0  0
  1  2  2  0
  2  3  1  0
  2 27  1  0
  3  4  2  0
  3 28  1  0
  4 15  1  0
  4  5  1  0
  5  6  2  0
  5 29  1  0
  6  1  1  0
  6 30  1  0
  7  8  2  0
  7 31  1  0
  8  1  1  0
  8 32  1  0
  9 10  2  0
 10  7  1  0
 10 11  1  0
 11 12  1  0
 11 13  1  0
 12 14  1  0
 15 16  1  0
 15 33  1  0
 15 34  1  0
 16 17  1  0
 17 18  2  0
 17 19  1  0
 19 20  1  0
 19 35  1  0
 19 36  1  0
 20 21  2  0
 21 22  1  0
 21 37  1  0
 22 23  1  0
 22 24  2  0
 24 25  1  0
 24 38  1  0
 25 26  2  0
 25 39  1  0
 26 16  1  0
 26 20  1  0
M  END
>  <minimizedAffinity>  (6) 
-8.33545

>  <mol_id>  (6) 
18661

>  <source_index>  (6) 
5

>  <layer>  (6) 
L1

>  <uniprot>  (6) 
P56524

>  <paff>  (6) 
6.1561000000000003

>  <smiles>  (6) 
O=C(/C=C/c1ccc(CN2C(=O)Cc3cc(Br)ccc32)cc1)NO

$$$$
L1:P56524:18662
     RDKit          3D

 40 41  0  0  0  0  0  0  0  0999 V2000
   18.9334   79.2837   36.5601 C   0  0  0  0  0  0  0  0  0  0  0  0
   18.3509   78.7300   35.2569 C   0  0  0  0  0  0  0  0  0  0  0  0
   17.2195   79.5903   34.6857 C   0  0  0  0  0  0  0  0  0  0  0  0
   17.6316   80.3911   33.4487 C   0  0  0  0  0  0  0  0  0  0  0  0
   18.4472   79.5332   32.4826 C   0  0  0  0  0  0  0  0  0  0  0  0
   20.0477   80.4763   30.9093 O   0  0  0  0  0  0  0  0  0  0  0  0
   19.7378   80.2069   32.0666 C   0  0  0  0  0  0  0  0  0  0  0  0
   20.5641   80.5019   33.1295 N   0  0  0  0  0  0  0  0  0  0  0  0
   21.7142   81.2579   32.7933 O   0  0  0  0  0  0  0  0  0  0  0  0
   20.1952   80.6506   34.0627 H   0  0  0  0  0  0  0  0  0  0  0  0
   21.6437   81.3243   31.8146 H   0  0  0  0  0  0  0  0  0  0  0  0
   20.4311   78.9970   36.7172 C   0  0  0  0  0  0  0  0  0  0  0  0
   20.7129   77.9395   37.6609 N   0  0  0  0  0  0  0  0  0  0  0  0
   20.7519   76.5855   37.3083 C   0  0  0  0  0  0  0  0  0  0  0  0
   20.5836   76.1101   36.1955 O   0  0  0  0  0  0  0  0  0  0  0  0
   21.0485   75.7879   38.5797 C   0  0  0  0  0  0  0  0  0  0  0  0
   21.1562   76.8611   39.6187 C   0  0  0  0  0  0  0  0  0  0  0  0
   21.4129   76.7378   40.9730 C   0  0  0  0  0  0  0  0  0  0  0  0
   21.4620   77.9044   41.7389 C   0  0  0  0  0  0  0  0  0  0  0  0
   21.2562   79.1615   41.1454 C   0  0  0  0  0  0  0  0  0  0  0  0
   20.9977   79.2725   39.7757 C   0  0  0  0  0  0  0  0  0  0  0  0
   20.9512   78.1097   39.0298 C   0  0  0  0  0  0  0  0  0  0  0  0
   18.4131   78.8384   37.3822 H   0  0  0  0  0  0  0  0  0  0  0  0
   18.8119   80.3466   36.5384 H   0  0  0  0  0  0  0  0  0  0  0  0
   19.1350   78.6744   34.5310 H   0  0  0  0  0  0  0  0  0  0  0  0
   17.9373   77.7682   35.4779 H   0  0  0  0  0  0  0  0  0  0  0  0
   16.4064   78.9480   34.4188 H   0  0  0  0  0  0  0  0  0  0  0  0
   16.9456   80.2956   35.4423 H   0  0  0  0  0  0  0  0  0  0  0  0
   16.7518   80.7392   32.9490 H   0  0  0  0  0  0  0  0  0  0  0  0
   18.2368   81.2152   33.7643 H   0  0  0  0  0  0  0  0  0  0  0  0
   18.6818   78.6050   32.9604 H   0  0  0  0  0  0  0  0  0  0  0  0
   17.8584   79.3811   31.6023 H   0  0  0  0  0  0  0  0  0  0  0  0
   20.9148   79.8903   37.0532 H   0  0  0  0  0  0  0  0  0  0  0  0
   20.7951   78.6769   35.7633 H   0  0  0  0  0  0  0  0  0  0  0  0
   21.9654   75.2437   38.4896 H   0  0  0  0  0  0  0  0  0  0  0  0
   20.3058   75.0509   38.8035 H   0  0  0  0  0  0  0  0  0  0  0  0
   21.5634   75.8121   41.4037 H   0  0  0  0  0  0  0  0  0  0  0  0
   21.6514   77.8427   42.7515 H   0  0  0  0  0  0  0  0  0  0  0  0
   21.2963   80.0128   41.7273 H   0  0  0  0  0  0  0  0  0  0  0  0
   20.8464   80.1936   39.3355 H   0  0  0  0  0  0  0  0  0  0  0  0
  1 12  1  0
  1 23  1  0
  1 24  1  0
  2  1  1  0
  2 25  1  0
  2 26  1  0
  3  2  1  0
  3 27  1  0
  3 28  1  0
  4  3  1  0
  4 29  1  0
  4 30  1  0
  5  4  1  0
  5 31  1  0
  5 32  1  0
  6  7  2  0
  7  5  1  0
  7  8  1  0
  8  9  1  0
  8 10  1  0
  9 11  1  0
 12 13  1  0
 12 33  1  0
 12 34  1  0
 13 14  1  0
 14 15  2  0
 14 16  1  0
 16 17  1  0
 16 35  1  0
 16 36  1  0
 17 18  2  0
 18 19  1  0
 18 37  1  0
 19 20  2  0
 19 38  1  0
 20 21  1  0
 20 39  1  0
 21 22  2  0
 21 40  1  0
 22 13  1  0
 22 17  1  0
M  END
>  <minimizedAffinity>  (7) 
-6.54199

>  <mol_id>  (7) 
18662

>  <source_index>  (7) 
6

>  <layer>  (7) 
L1

>  <uniprot>  (7) 
P56524

>  <paff>  (7) 
7.8239000000000001

>  <smiles>  (7) 
O=C(CCCCCCN1C(=O)Cc2ccccc21)NO

$$$$
L1:P56524:18663
     RDKit          3D

 40 41  0  0  0  0  0  0  0  0999 V2000
   19.7906   77.8516   37.7429 C   0  0  0  0  0  0  0  0  0  0  0  0
   20.4619   76.8588   38.5510 N   0  0  0  0  0  0  0  0  0  0  0  0
   20.9228   77.0989   39.8500 C   0  0  0  0  0  0  0  0  0  0  0  0
   20.8010   78.1285   40.4960 O   0  0  0  0  0  0  0  0  0  0  0  0
   21.6223   75.8245   40.3307 C   0  0  0  0  0  0  0  0  0  0  0  0
   21.5064   74.9218   39.1411 C   0  0  0  0  0  0  0  0  0  0  0  0
   21.9744   73.6302   38.9754 C   0  0  0  0  0  0  0  0  0  0  0  0
   21.7378   73.0127   37.7497 C   0  0  0  0  0  0  0  0  0  0  0  0
   22.1764   71.7624   37.5517 F   0  0  0  0  0  0  0  0  0  0  0  0
   21.0535   73.6670   36.7164 C   0  0  0  0  0  0  0  0  0  0  0  0
   20.5844   74.9717   36.8956 C   0  0  0  0  0  0  0  0  0  0  0  0
   20.8203   75.5786   38.1166 C   0  0  0  0  0  0  0  0  0  0  0  0
   20.7561   78.9237   37.2363 C   0  0  0  0  0  0  0  0  0  0  0  0
   20.5987   79.1476   35.7309 C   0  0  0  0  0  0  0  0  0  0  0  0
   19.2047   78.7348   35.2542 C   0  0  0  0  0  0  0  0  0  0  0  0
   18.3190   79.9160   34.8387 C   0  0  0  0  0  0  0  0  0  0  0  0
   18.2063   80.1499   33.3327 C   0  0  0  0  0  0  0  0  0  0  0  0
   19.9529   79.2981   31.8638 O   0  0  0  0  0  0  0  0  0  0  0  0
   19.5413   80.1757   32.6174 C   0  0  0  0  0  0  0  0  0  0  0  0
   20.2894   81.2976   32.9046 N   0  0  0  0  0  0  0  0  0  0  0  0
   21.6021   81.2845   32.3710 O   0  0  0  0  0  0  0  0  0  0  0  0
   20.1762   81.7958   33.7813 H   0  0  0  0  0  0  0  0  0  0  0  0
   21.6182   80.4388   31.8692 H   0  0  0  0  0  0  0  0  0  0  0  0
   19.3407   77.3663   36.9021 H   0  0  0  0  0  0  0  0  0  0  0  0
   19.0533   78.3312   38.3522 H   0  0  0  0  0  0  0  0  0  0  0  0
   21.1251   75.4082   41.1818 H   0  0  0  0  0  0  0  0  0  0  0  0
   22.6318   75.9857   40.6468 H   0  0  0  0  0  0  0  0  0  0  0  0
   22.4798   73.1428   39.7317 H   0  0  0  0  0  0  0  0  0  0  0  0
   20.8951   73.1832   35.8187 H   0  0  0  0  0  0  0  0  0  0  0  0
   20.0794   75.4653   36.1430 H   0  0  0  0  0  0  0  0  0  0  0  0
   20.5567   79.8421   37.7479 H   0  0  0  0  0  0  0  0  0  0  0  0
   21.7562   78.5940   37.4258 H   0  0  0  0  0  0  0  0  0  0  0  0
   20.7489   80.1847   35.5145 H   0  0  0  0  0  0  0  0  0  0  0  0
   21.3232   78.5476   35.2210 H   0  0  0  0  0  0  0  0  0  0  0  0
   19.3149   78.0831   34.4127 H   0  0  0  0  0  0  0  0  0  0  0  0
   18.7209   78.2573   36.0805 H   0  0  0  0  0  0  0  0  0  0  0  0
   17.3348   79.7416   35.2207 H   0  0  0  0  0  0  0  0  0  0  0  0
   18.7858   80.7912   35.2399 H   0  0  0  0  0  0  0  0  0  0  0  0
   17.6134   79.3645   32.9126 H   0  0  0  0  0  0  0  0  0  0  0  0
   17.7620   81.1141   33.1990 H   0  0  0  0  0  0  0  0  0  0  0  0
  1  2  1  0
  1 24  1  0
  1 25  1  0
  2  3  1  0
  3  4  2  0
  3  5  1  0
  5  6  1  0
  5 26  1  0
  5 27  1  0
  6  7  2  0
  7  8  1  0
  7 28  1  0
  8  9  1  0
  8 10  2  0
 10 11  1  0
 10 29  1  0
 11 12  2  0
 11 30  1  0
 12  2  1  0
 12  6  1  0
 13  1  1  0
 13 31  1  0
 13 32  1  0
 14 13  1  0
 14 33  1  0
 14 34  1  0
 15 14  1  0
 15 35  1  0
 15 36  1  0
 16 15  1  0
 16 37  1  0
 16 38  1  0
 17 16  1  0
 17 39  1  0
 17 40  1  0
 18 19  2  0
 19 17  1  0
 19 20  1  0
 20 21  1  0
 20 22  1  0
 21 23  1  0
M  END
>  <minimizedAffinity>  (8) 
-6.61006

>  <mol_id>  (8) 
18663

>  <source_index>  (8) 
7

>  <layer>  (8) 
L1

>  <uniprot>  (8) 
P56524

>  <paff>  (8) 
7.3278999999999996

>  <smiles>  (8) 
O=C(CCCCCCN1C(=O)Cc2cc(F)ccc21)NO

$$$$
L1:P56524:25733
     RDKit          3D

 50 51  0  0  0  0  0  0  0  0999 V2000
   21.0824   76.2912   38.6785 C   0  0  0  0  0  0  0  0  0  0  0  0
   20.8800   77.6641   38.8590 C   0  0  0  0  0  0  0  0  0  0  0  0
   20.5058   78.4668   37.7738 C   0  0  0  0  0  0  0  0  0  0  0  0
   20.3210   77.9109   36.4979 C   0  0  0  0  0  0  0  0  0  0  0  0
   20.5105   76.5313   36.3314 C   0  0  0  0  0  0  0  0  0  0  0  0
   20.8831   75.7267   37.4137 C   0  0  0  0  0  0  0  0  0  0  0  0
   19.9311   78.7421   35.3630 C   0  0  0  0  0  0  0  0  0  0  0  0
   19.1717   79.8452   35.4649 N   0  0  0  0  0  0  0  0  0  0  0  0
   19.0613   80.3013   34.1553 O   0  0  0  0  0  0  0  0  0  0  0  0
   19.7671   79.4320   33.3751 C   0  0  0  0  0  0  0  0  0  0  0  0
   20.3218   78.4573   34.0717 N   0  0  0  0  0  0  0  0  0  0  0  0
   19.7794   79.7394   31.9235 C   0  0  0  0  0  0  0  0  0  0  0  0
   20.3329   78.7352   31.1912 F   0  0  0  0  0  0  0  0  0  0  0  0
   18.5259   79.9313   31.4298 F   0  0  0  0  0  0  0  0  0  0  0  0
   20.4849   80.8644   31.6292 F   0  0  0  0  0  0  0  0  0  0  0  0
   21.7817   76.0053   40.9977 N   0  0  0  0  0  0  0  0  0  0  0  0
   21.4751   75.3934   39.7997 C   0  0  0  0  0  0  0  0  0  0  0  0
   21.5365   74.1825   39.6215 O   0  0  0  0  0  0  0  0  0  0  0  0
   21.8507   77.0120   41.0450 H   0  0  0  0  0  0  0  0  0  0  0  0
   22.2070   75.2399   42.1537 C   0  0  0  0  0  0  0  0  0  0  0  0
   23.6988   75.4265   42.4274 C   0  0  0  0  0  0  0  0  0  0  0  0
   24.1586   76.8845   42.3187 C   0  0  0  0  0  0  0  0  0  0  0  0
   23.5558   77.7880   43.4067 C   0  0  0  0  0  0  0  0  0  0  0  0
   22.6312   78.8120   42.8897 N   0  0  0  0  0  0  0  0  0  0  0  0
   20.1642   78.8092   42.4822 C   0  0  0  0  0  0  0  0  0  0  0  0
   21.2946   78.7084   43.5021 C   0  0  0  0  0  0  0  0  0  0  0  0
   23.1456   80.1903   42.9717 C   0  0  0  0  0  0  0  0  0  0  0  0
   22.6918   81.0112   44.1757 C   0  0  0  0  0  0  0  0  0  0  0  0
   21.0066   78.0855   39.7925 H   0  0  0  0  0  0  0  0  0  0  0  0
   20.3642   79.4794   37.9139 H   0  0  0  0  0  0  0  0  0  0  0  0
   20.3738   76.1054   35.4014 H   0  0  0  0  0  0  0  0  0  0  0  0
   21.0116   74.7117   37.2785 H   0  0  0  0  0  0  0  0  0  0  0  0
   21.6527   75.5646   43.0094 H   0  0  0  0  0  0  0  0  0  0  0  0
   22.0277   74.2037   41.9562 H   0  0  0  0  0  0  0  0  0  0  0  0
   23.9086   75.0773   43.4168 H   0  0  0  0  0  0  0  0  0  0  0  0
   24.2291   74.8711   41.6823 H   0  0  0  0  0  0  0  0  0  0  0  0
   25.2248   76.9129   42.4042 H   0  0  0  0  0  0  0  0  0  0  0  0
   23.8233   77.2558   41.3728 H   0  0  0  0  0  0  0  0  0  0  0  0
   23.0218   77.1710   44.0989 H   0  0  0  0  0  0  0  0  0  0  0  0
   24.3711   78.3089   43.8637 H   0  0  0  0  0  0  0  0  0  0  0  0
   19.2227   78.7276   42.9840 H   0  0  0  0  0  0  0  0  0  0  0  0
   20.2571   78.0184   41.7675 H   0  0  0  0  0  0  0  0  0  0  0  0
   20.2201   79.7523   41.9799 H   0  0  0  0  0  0  0  0  0  0  0  0
   21.2203   77.7652   44.0019 H   0  0  0  0  0  0  0  0  0  0  0  0
   21.1883   79.5285   44.1811 H   0  0  0  0  0  0  0  0  0  0  0  0
   22.8340   80.7076   42.0884 H   0  0  0  0  0  0  0  0  0  0  0  0
   24.2061   80.0932   43.0761 H   0  0  0  0  0  0  0  0  0  0  0  0
   21.6314   81.1480   44.1349 H   0  0  0  0  0  0  0  0  0  0  0  0
   23.1754   81.9655   44.1594 H   0  0  0  0  0  0  0  0  0  0  0  0
   22.9505   80.4956   45.0769 H   0  0  0  0  0  0  0  0  0  0  0  0
  1  2  2  0
  2  3  1  0
  2 29  1  0
  3  4  2  0
  3 30  1  0
  4  7  1  0
  4  5  1  0
  5  6  2  0
  5 31  1  0
  6  1  1  0
  6 32  1  0
  7  8  2  0
  8  9  1  0
  9 10  1  0
 10 12  1  0
 10 11  2  0
 11  7  1  0
 12 13  1  0
 12 14  1  0
 12 15  1  0
 16 17  1  0
 16 19  1  0
 17 18  2  0
 17  1  1  0
 20 16  1  0
 20 33  1  0
 20 34  1  0
 21 20  1  0
 21 35  1  0
 21 36  1  0
 22 21  1  0
 22 37  1  0
 22 38  1  0
 23 22  1  0
 23 39  1  0
 23 40  1  0
 24 27  1  0
 24 23  1  0
 25 26  1  0
 25 41  1  0
 25 42  1  0
 25 43  1  0
 26 24  1  0
 26 44  1  0
 26 45  1  0
 27 28  1  0
 27 46  1  0
 27 47  1  0
 28 48  1  0
 28 49  1  0
 28 50  1  0
M  END
>  <minimizedAffinity>  (9) 
-6.29251

>  <mol_id>  (9) 
25733

>  <source_index>  (9) 
8

>  <layer>  (9) 
L1

>  <uniprot>  (9) 
P56524

>  <paff>  (9) 
6.8570000000000002

>  <smiles>  (9) 
CCN(CC)CCCCNC(=O)c1ccc(-c2noc(C(F)(F)F)n2)cc1

$$$$
L1:P56524:46247
     RDKit          3D

 57 61  0  0  0  0  0  0  0  0999 V2000
   16.3865   80.3038   33.7288 C   0  0  0  0  0  0  0  0  0  0  0  0
   16.2531   81.5183   33.8212 O   0  0  0  0  0  0  0  0  0  0  0  0
   15.3386   79.4257   33.5256 N   0  0  0  0  0  0  0  0  0  0  0  0
   15.5636   78.4856   33.2265 H   0  0  0  0  0  0  0  0  0  0  0  0
   19.5224   78.7495   35.1638 C   0  0  0  0  0  0  0  0  0  0  0  0
   20.2795   78.5508   33.9967 C   0  0  0  0  0  0  0  0  0  0  0  0
   19.7727   78.9063   32.7435 C   0  0  0  0  0  0  0  0  0  0  0  0
   18.5048   79.4766   32.6412 C   0  0  0  0  0  0  0  0  0  0  0  0
   17.7436   79.6980   33.7959 C   0  0  0  0  0  0  0  0  0  0  0  0
   18.2464   79.3213   35.0506 C   0  0  0  0  0  0  0  0  0  0  0  0
   20.6819   77.1363   38.0696 C   0  0  0  0  0  0  0  0  0  0  0  0
   20.1441   77.0459   36.8665 N   0  0  0  0  0  0  0  0  0  0  0  0
   20.0652   78.3638   36.4639 C   0  0  0  0  0  0  0  0  0  0  0  0
   20.5373   79.2319   37.3725 N   0  0  0  0  0  0  0  0  0  0  0  0
   20.9407   78.4256   38.4337 O   0  0  0  0  0  0  0  0  0  0  0  0
   21.9028   76.5582   40.0200 F   0  0  0  0  0  0  0  0  0  0  0  0
   21.0361   76.1001   39.0738 C   0  0  0  0  0  0  0  0  0  0  0  0
   19.9448   75.6399   39.7464 F   0  0  0  0  0  0  0  0  0  0  0  0
   21.6287   75.0134   38.5030 F   0  0  0  0  0  0  0  0  0  0  0  0
   13.9746   79.8994   33.3162 C   0  0  0  0  0  0  0  0  0  0  0  0
   13.0535   79.8310   34.5746 C   0  0  0  0  0  0  0  0  0  0  0  0
   12.8866   81.2491   35.1993 C   0  0  0  0  0  0  0  0  0  0  0  0
   11.6132   81.9351   34.7232 C   0  0  0  0  0  0  0  0  0  0  0  0
   10.4253   81.2117   35.0271 O   0  0  0  0  0  0  0  0  0  0  0  0
   10.5668   79.7931   35.0886 C   0  0  0  0  0  0  0  0  0  0  0  0
   11.6622   79.2688   34.1673 C   0  0  0  0  0  0  0  0  0  0  0  0
   13.6420   78.8995   35.6569 C   0  0  0  0  0  0  0  0  0  0  0  0
   14.4053   79.3495   36.6363 N   0  0  0  0  0  0  0  0  0  0  0  0
   14.7816   78.3296   37.4970 C   0  0  0  0  0  0  0  0  0  0  0  0
   14.2972   77.0852   37.1445 C   0  0  0  0  0  0  0  0  0  0  0  0
   13.3425   77.2017   35.7282 S   0  0  0  0  0  0  0  0  0  0  0  0
   15.6351   78.6018   38.6524 C   0  0  0  0  0  0  0  0  0  0  0  0
   15.0822   79.2309   39.7790 C   0  0  0  0  0  0  0  0  0  0  0  0
   15.8650   79.5070   40.9032 C   0  0  0  0  0  0  0  0  0  0  0  0
   17.2122   79.1521   40.9183 C   0  0  0  0  0  0  0  0  0  0  0  0
   17.7754   78.5196   39.8118 C   0  0  0  0  0  0  0  0  0  0  0  0
   16.9925   78.2445   38.6855 C   0  0  0  0  0  0  0  0  0  0  0  0
   21.2223   78.1369   34.0658 H   0  0  0  0  0  0  0  0  0  0  0  0
   20.3369   78.7466   31.8943 H   0  0  0  0  0  0  0  0  0  0  0  0
   18.1276   79.7353   31.7161 H   0  0  0  0  0  0  0  0  0  0  0  0
   17.6732   79.4660   35.8965 H   0  0  0  0  0  0  0  0  0  0  0  0
   13.5304   79.3033   32.5466 H   0  0  0  0  0  0  0  0  0  0  0  0
   14.0533   80.9349   33.0584 H   0  0  0  0  0  0  0  0  0  0  0  0
   13.7273   81.8501   34.9219 H   0  0  0  0  0  0  0  0  0  0  0  0
   12.8248   81.1374   36.2617 H   0  0  0  0  0  0  0  0  0  0  0  0
   11.6720   82.0574   33.6618 H   0  0  0  0  0  0  0  0  0  0  0  0
   11.5503   82.8704   35.2392 H   0  0  0  0  0  0  0  0  0  0  0  0
    9.6378   79.3442   34.8053 H   0  0  0  0  0  0  0  0  0  0  0  0
   10.8403   79.5396   36.0915 H   0  0  0  0  0  0  0  0  0  0  0  0
   11.4457   79.5663   33.1625 H   0  0  0  0  0  0  0  0  0  0  0  0
   11.6906   78.2021   34.2461 H   0  0  0  0  0  0  0  0  0  0  0  0
   14.4838   76.2111   37.6605 H   0  0  0  0  0  0  0  0  0  0  0  0
   14.0841   79.4930   39.7770 H   0  0  0  0  0  0  0  0  0  0  0  0
   15.4452   79.9738   41.7223 H   0  0  0  0  0  0  0  0  0  0  0  0
   17.7917   79.3572   41.7472 H   0  0  0  0  0  0  0  0  0  0  0  0
   18.7724   78.2535   39.8232 H   0  0  0  0  0  0  0  0  0  0  0  0
   17.4170   77.7742   37.8708 H   0  0  0  0  0  0  0  0  0  0  0  0
  1  2  2  0
  1  3  1  0
  3 20  1  0
  3  4  1  0
  5  6  2  0
  6  7  1  0
  6 38  1  0
  7  8  2  0
  7 39  1  0
  8  9  1  0
  8 40  1  0
  9 10  2  0
  9  1  1  0
 10  5  1  0
 10 41  1  0
 11 12  2  0
 12 13  1  0
 13 14  2  0
 13  5  1  0
 14 15  1  0
 15 11  1  0
 16 17  1  0
 17 18  1  0
 17 19  1  0
 17 11  1  0
 20 21  1  0
 20 42  1  0
 20 43  1  0
 21 22  1  0
 21 27  1  0
 22 23  1  0
 22 44  1  0
 22 45  1  0
 23 24  1  0
 23 46  1  0
 23 47  1  0
 24 25  1  0
 25 26  1  0
 25 48  1  0
 25 49  1  0
 26 21  1  0
 26 50  1  0
 26 51  1  0
 27 28  2  0
 28 29  1  0
 29 30  2  0
 29 32  1  0
 30 31  1  0
 30 52  1  0
 31 27  1  0
 32 33  2  0
 33 34  1  0
 33 53  1  0
 34 35  2  0
 34 54  1  0
 35 36  1  0
 35 55  1  0
 36 37  2  0
 36 56  1  0
 37 32  1  0
 37 57  1  0
M  END
>  <minimizedAffinity>  (10) 
-7.49852

>  <mol_id>  (10) 
46247

>  <source_index>  (10) 
9

>  <layer>  (10) 
L1

>  <uniprot>  (10) 
P56524

>  <paff>  (10) 
8.4558999999999997

>  <smiles>  (10) 
FC(F)(F)c1nc(no1)-c1cccc(c1)C(=O)NCC1(CCOCC1)c1nc(cs1)-c1ccccc1

$$$$
