L2:P43166:14372
     RDKit          3D

 67 70  0  0  0  0  0  0  0  0999 V2000
   -4.2849   -1.8129   21.9107 C   0  0  0  0  0  0  0  0  0  0  0  0
   -5.2430   -0.8902   21.1253 C   0  0  0  0  0  0  0  0  0  0  0  0
   -6.5676   -1.5766   20.7846 C   0  0  0  0  0  0  0  0  0  0  0  0
   -7.2027   -2.2586   21.9120 N   0  0  0  0  0  0  0  0  0  0  0  0
   -6.3043   -3.1752   22.6318 C   0  0  0  0  0  0  0  0  0  0  0  0
   -4.8715   -3.2302   22.0910 C   0  0  0  0  0  0  0  0  0  0  0  0
   -2.9256   -1.8650   21.2977 N   0  0  0  0  0  0  0  0  0  0  0  0
   -2.3481   -1.0837   21.6107 H   0  0  0  0  0  0  0  0  0  0  0  0
   -2.5532   -2.2274   20.0113 C   0  0  0  0  0  0  0  0  0  0  0  0
   -1.3130   -2.8728   19.8562 C   0  0  0  0  0  0  0  0  0  0  0  0
   -0.8637   -3.3281   18.6127 C   0  0  0  0  0  0  0  0  0  0  0  0
   -1.6607   -3.1632   17.4880 C   0  0  0  0  0  0  0  0  0  0  0  0
   -2.9027   -2.5531   17.6175 C   0  0  0  0  0  0  0  0  0  0  0  0
   -3.3435   -2.1023   18.8694 C   0  0  0  0  0  0  0  0  0  0  0  0
   -4.0585   -1.1740   23.3317 C   0  0  0  0  0  0  0  0  0  0  0  0
   -2.5999    0.8167   23.3384 C   0  0  0  0  0  0  0  0  0  0  0  0
   -3.5456    1.5891   23.2340 O   0  0  0  0  0  0  0  0  0  0  0  0
   -2.7484   -0.5466   23.4403 N   0  0  0  0  0  0  0  0  0  0  0  0
   -1.9564   -1.1589   23.2772 H   0  0  0  0  0  0  0  0  0  0  0  0
    1.4496    2.2048   23.2832 C   0  0  0  0  0  0  0  0  0  0  0  0
    0.4125    3.1402   23.2094 C   0  0  0  0  0  0  0  0  0  0  0  0
   -0.9152    2.7028   23.2232 C   0  0  0  0  0  0  0  0  0  0  0  0
   -1.2028    1.3336   23.3244 C   0  0  0  0  0  0  0  0  0  0  0  0
   -0.1526    0.4061   23.3950 C   0  0  0  0  0  0  0  0  0  0  0  0
    1.1753    0.8387   23.3840 C   0  0  0  0  0  0  0  0  0  0  0  0
    3.3572    3.1438   21.6536 N   0  0  0  0  0  0  0  0  0  0  0  0
    3.1327    2.7671   23.2784 S   0  0  0  0  0  0  0  0  0  0  0  0
    3.2040    3.9935   24.0359 O   0  0  0  0  0  0  0  0  0  0  0  0
    3.9920    1.6367   23.5430 O   0  0  0  0  0  0  0  0  0  0  0  0
    2.4963    3.1294   21.1083 H   0  0  0  0  0  0  0  0  0  0  0  0
    4.0682    2.5224   21.2639 H   0  0  0  0  0  0  0  0  0  0  0  0
   -7.9413   -1.3790   22.8353 C   0  0  0  0  0  0  0  0  0  0  0  0
   -9.2481   -0.8174   22.2477 C   0  0  0  0  0  0  0  0  0  0  0  0
   -9.2106    0.6902   22.1512 C   0  0  0  0  0  0  0  0  0  0  0  0
   -8.3817    1.3231   21.2150 C   0  0  0  0  0  0  0  0  0  0  0  0
   -8.3357    2.7160   21.1399 C   0  0  0  0  0  0  0  0  0  0  0  0
   -9.1126    3.4881   22.0018 C   0  0  0  0  0  0  0  0  0  0  0  0
   -9.9351    2.8684   22.9409 C   0  0  0  0  0  0  0  0  0  0  0  0
   -9.9838    1.4758   23.0167 C   0  0  0  0  0  0  0  0  0  0  0  0
   -4.7653   -0.5945   20.2146 H   0  0  0  0  0  0  0  0  0  0  0  0
   -5.4635   -0.0464   21.7452 H   0  0  0  0  0  0  0  0  0  0  0  0
   -6.3823   -2.2994   20.0177 H   0  0  0  0  0  0  0  0  0  0  0  0
   -7.2411   -0.8044   20.4764 H   0  0  0  0  0  0  0  0  0  0  0  0
   -6.7191   -4.1599   22.5753 H   0  0  0  0  0  0  0  0  0  0  0  0
   -6.2337   -2.8025   23.6323 H   0  0  0  0  0  0  0  0  0  0  0  0
   -4.8752   -3.7289   21.1443 H   0  0  0  0  0  0  0  0  0  0  0  0
   -4.2647   -3.7597   22.7955 H   0  0  0  0  0  0  0  0  0  0  0  0
   -0.7161   -3.0147   20.6860 H   0  0  0  0  0  0  0  0  0  0  0  0
    0.0578   -3.7854   18.5313 H   0  0  0  0  0  0  0  0  0  0  0  0
   -1.3343   -3.4903   16.5652 H   0  0  0  0  0  0  0  0  0  0  0  0
   -3.5037   -2.4313   16.7874 H   0  0  0  0  0  0  0  0  0  0  0  0
   -4.2759   -1.6671   18.9479 H   0  0  0  0  0  0  0  0  0  0  0  0
   -4.8121   -0.4340   23.5028 H   0  0  0  0  0  0  0  0  0  0  0  0
   -4.1144   -1.9555   24.0604 H   0  0  0  0  0  0  0  0  0  0  0  0
    0.6262    4.1478   23.1451 H   0  0  0  0  0  0  0  0  0  0  0  0
   -1.6844    3.3878   23.1589 H   0  0  0  0  0  0  0  0  0  0  0  0
   -0.3627   -0.6025   23.4555 H   0  0  0  0  0  0  0  0  0  0  0  0
    1.9463    0.1559   23.4497 H   0  0  0  0  0  0  0  0  0  0  0  0
   -7.3083   -0.5568   23.0965 H   0  0  0  0  0  0  0  0  0  0  0  0
   -8.2114   -1.9739   23.6827 H   0  0  0  0  0  0  0  0  0  0  0  0
  -10.0640   -1.1051   22.8773 H   0  0  0  0  0  0  0  0  0  0  0  0
   -9.3694   -1.2135   21.2611 H   0  0  0  0  0  0  0  0  0  0  0  0
   -7.8018    0.7557   20.5772 H   0  0  0  0  0  0  0  0  0  0  0  0
   -7.7257    3.1748   20.4453 H   0  0  0  0  0  0  0  0  0  0  0  0
   -9.0788    4.5180   21.9447 H   0  0  0  0  0  0  0  0  0  0  0  0
  -10.5086    3.4399   23.5808 H   0  0  0  0  0  0  0  0  0  0  0  0
  -10.5932    1.0214   23.7147 H   0  0  0  0  0  0  0  0  0  0  0  0
  1  7  1  0
  1  2  1  0
  2  3  1  0
  2 40  1  0
  2 41  1  0
  3  4  1  0
  3 42  1  0
  3 43  1  0
  4 32  1  0
  4  5  1  0
  5  6  1  0
  5 44  1  0
  5 45  1  0
  6  1  1  0
  6 46  1  0
  6 47  1  0
  7  9  1  0
  7  8  1  0
  9 10  2  0
 10 11  1  0
 10 48  1  0
 11 12  2  0
 11 49  1  0
 12 13  1  0
 12 50  1  0
 13 14  2  0
 13 51  1  0
 14  9  1  0
 14 52  1  0
 15  1  1  0
 15 53  1  0
 15 54  1  0
 16 17  2  0
 16 18  1  0
 18 15  1  0
 18 19  1  0
 20 21  2  0
 21 22  1  0
 21 55  1  0
 22 23  2  0
 22 56  1  0
 23 16  1  0
 23 24  1  0
 24 25  2  0
 24 57  1  0
 25 20  1  0
 25 58  1  0
 26 27  1  0
 26 30  1  0
 26 31  1  0
 27 28  2  0
 27 29  2  0
 27 20  1  0
 32 33  1  0
 32 59  1  0
 32 60  1  0
 33 34  1  0
 33 61  1  0
 33 62  1  0
 34 35  2  0
 35 36  1  0
 35 63  1  0
 36 37  2  0
 36 64  1  0
 37 38  1  0
 37 65  1  0
 38 39  2  0
 38 66  1  0
 39 34  1  0
 39 67  1  0
M  END
>  <minimizedAffinity>  (1) 
-7.46966

>  <mol_id>  (1) 
14372

>  <source_index>  (1) 
0

>  <layer>  (1) 
L2

>  <uniprot>  (1) 
P43166

>  <paff>  (1) 
7.6383000000000001

>  <smiles>  (1) 
NS(=O)(=O)c1ccc(C(=O)NCC2(Nc3ccccc3)CCN(CCc3ccccc3)CC2)cc1

$$$$
L2:P43166:14743
     RDKit          3D

 68 71  0  0  0  0  0  0  0  0999 V2000
   -2.0030    0.0273   25.8215 C   0  0  0  0  0  0  0  0  0  0  0  0
   -1.8363   -0.8105   26.8574 C   0  0  0  0  0  0  0  0  0  0  0  0
   -2.6926   -1.9764   27.1125 C   0  0  0  0  0  0  0  0  0  0  0  0
   -2.5028   -2.6855   28.0938 O   0  0  0  0  0  0  0  0  0  0  0  0
   -3.7040   -2.2210   26.2037 O   0  0  0  0  0  0  0  0  0  0  0  0
   -3.9002   -1.3781   25.0912 C   0  0  0  0  0  0  0  0  0  0  0  0
   -4.9510   -1.7319   24.2373 C   0  0  0  0  0  0  0  0  0  0  0  0
   -5.2151   -0.9489   23.1197 C   0  0  0  0  0  0  0  0  0  0  0  0
   -4.4093    0.1640   22.8700 C   0  0  0  0  0  0  0  0  0  0  0  0
   -3.3591    0.5051   23.7331 C   0  0  0  0  0  0  0  0  0  0  0  0
   -3.0875   -0.2644   24.8682 C   0  0  0  0  0  0  0  0  0  0  0  0
   -1.0696    1.2019   25.6187 C   0  0  0  0  0  0  0  0  0  0  0  0
    3.2255    2.9943   22.5441 C   0  0  0  0  0  0  0  0  0  0  0  0
    4.3587    2.5317   22.5674 O   0  0  0  0  0  0  0  0  0  0  0  0
    2.1586    2.4237   23.2063 N   0  0  0  0  0  0  0  0  0  0  0  0
    2.3711    1.2295   24.0158 C   0  0  0  0  0  0  0  0  0  0  0  0
    1.2977    1.0845   25.1059 C   0  0  0  0  0  0  0  0  0  0  0  0
   -0.0724    0.9954   24.5618 N   0  0  0  0  0  0  0  0  0  0  0  0
   -0.2666    1.8594   23.3777 C   0  0  0  0  0  0  0  0  0  0  0  0
    0.7975    2.9534   23.1583 C   0  0  0  0  0  0  0  0  0  0  0  0
    2.8663    4.1215   21.8785 O   0  0  0  0  0  0  0  0  0  0  0  0
    4.8131    5.4574   21.7551 C   0  0  0  0  0  0  0  0  0  0  0  0
    3.3700    5.4209   22.2821 C   0  0  0  0  0  0  0  0  0  0  0  0
    2.5806    6.5571   21.6219 C   0  0  0  0  0  0  0  0  0  0  0  0
    3.4046    5.5567   23.8086 C   0  0  0  0  0  0  0  0  0  0  0  0
   -6.1974   -1.1607   22.1938 O   0  0  0  0  0  0  0  0  0  0  0  0
   -6.1247   -2.3340   21.3795 C   0  0  0  0  0  0  0  0  0  0  0  0
   -4.8208   -2.4415   20.6176 C   0  0  0  0  0  0  0  0  0  0  0  0
   -3.7956   -3.2749   21.0939 C   0  0  0  0  0  0  0  0  0  0  0  0
   -2.5992   -3.4055   20.3853 C   0  0  0  0  0  0  0  0  0  0  0  0
   -2.4336   -2.7129   19.1842 C   0  0  0  0  0  0  0  0  0  0  0  0
   -3.4416   -1.8795   18.6946 C   0  0  0  0  0  0  0  0  0  0  0  0
   -4.6344   -1.7534   19.4078 C   0  0  0  0  0  0  0  0  0  0  0  0
   -0.9250   -2.8747   18.2679 S   0  0  0  0  0  0  0  0  0  0  0  0
    0.1878   -2.1965   19.3378 N   0  0  0  0  0  0  0  0  0  0  0  0
   -0.9709   -1.9732   17.1396 O   0  0  0  0  0  0  0  0  0  0  0  0
   -0.6165   -4.2782   18.1337 O   0  0  0  0  0  0  0  0  0  0  0  0
   -0.2090   -2.0042   20.2564 H   0  0  0  0  0  0  0  0  0  0  0  0
    0.5800   -1.3557   18.9100 H   0  0  0  0  0  0  0  0  0  0  0  0
   -1.0611   -0.6244   27.5128 H   0  0  0  0  0  0  0  0  0  0  0  0
   -5.5246   -2.5666   24.4356 H   0  0  0  0  0  0  0  0  0  0  0  0
   -4.5901    0.7448   22.0363 H   0  0  0  0  0  0  0  0  0  0  0  0
   -2.7795    1.3340   23.5283 H   0  0  0  0  0  0  0  0  0  0  0  0
   -1.6574    2.0589   25.3641 H   0  0  0  0  0  0  0  0  0  0  0  0
   -0.5296    1.3302   26.5335 H   0  0  0  0  0  0  0  0  0  0  0  0
    3.3323    1.2927   24.4816 H   0  0  0  0  0  0  0  0  0  0  0  0
    2.3122    0.3758   23.3734 H   0  0  0  0  0  0  0  0  0  0  0  0
    1.3525    1.9349   25.7530 H   0  0  0  0  0  0  0  0  0  0  0  0
    1.4939    0.1710   25.6273 H   0  0  0  0  0  0  0  0  0  0  0  0
   -1.2166    2.3417   23.4765 H   0  0  0  0  0  0  0  0  0  0  0  0
   -0.1917    1.2097   22.5308 H   0  0  0  0  0  0  0  0  0  0  0  0
    0.6903    3.6952   23.9219 H   0  0  0  0  0  0  0  0  0  0  0  0
    0.6429    3.3684   22.1843 H   0  0  0  0  0  0  0  0  0  0  0  0
    5.2634    6.3932   22.0128 H   0  0  0  0  0  0  0  0  0  0  0  0
    4.8071    5.3455   20.6910 H   0  0  0  0  0  0  0  0  0  0  0  0
    5.3736    4.6589   22.1946 H   0  0  0  0  0  0  0  0  0  0  0  0
    2.9770    7.4986   21.9402 H   0  0  0  0  0  0  0  0  0  0  0  0
    1.5515    6.4887   21.9066 H   0  0  0  0  0  0  0  0  0  0  0  0
    2.6624    6.4770   20.5580 H   0  0  0  0  0  0  0  0  0  0  0  0
    3.7798    6.5235   24.0723 H   0  0  0  0  0  0  0  0  0  0  0  0
    4.0426    4.8023   24.2194 H   0  0  0  0  0  0  0  0  0  0  0  0
    2.4156    5.4391   24.1996 H   0  0  0  0  0  0  0  0  0  0  0  0
   -6.9306   -2.3120   20.6760 H   0  0  0  0  0  0  0  0  0  0  0  0
   -6.1877   -3.1812   22.0300 H   0  0  0  0  0  0  0  0  0  0  0  0
   -3.9275   -3.7954   21.9752 H   0  0  0  0  0  0  0  0  0  0  0  0
   -1.8438   -4.0089   20.7464 H   0  0  0  0  0  0  0  0  0  0  0  0
   -3.3055   -1.3612   17.8126 H   0  0  0  0  0  0  0  0  0  0  0  0
   -5.3867   -1.1487   19.0426 H   0  0  0  0  0  0  0  0  0  0  0  0
  1  2  2  0
  2  3  1  0
  2 40  1  0
  3  4  2  0
  3  5  1  0
  5  6  1  0
  6  7  2  0
  7  8  1  0
  7 41  1  0
  8 26  1  0
  8  9  2  0
  9 10  1  0
  9 42  1  0
 10 11  2  0
 10 43  1  0
 11  1  1  0
 11  6  1  0
 12  1  1  0
 12 44  1  0
 12 45  1  0
 13 14  2  0
 13 15  1  0
 15 16  1  0
 16 17  1  0
 16 46  1  0
 16 47  1  0
 17 18  1  0
 17 48  1  0
 17 49  1  0
 18 12  1  0
 18 19  1  0
 19 20  1  0
 19 50  1  0
 19 51  1  0
 20 15  1  0
 20 52  1  0
 20 53  1  0
 21 13  1  0
 22 23  1  0
 22 54  1  0
 22 55  1  0
 22 56  1  0
 23 24  1  0
 23 25  1  0
 23 21  1  0
 24 57  1  0
 24 58  1  0
 24 59  1  0
 25 60  1  0
 25 61  1  0
 25 62  1  0
 26 27  1  0
 27 28  1  0
 27 63  1  0
 27 64  1  0
 28 29  2  0
 29 30  1  0
 29 65  1  0
 30 31  2  0
 30 66  1  0
 31 34  1  0
 31 32  1  0
 32 33  2  0
 32 67  1  0
 33 28  1  0
 33 68  1  0
 34 35  1  0
 34 36  2  0
 34 37  2  0
 35 38  1  0
 35 39  1  0
M  END
>  <minimizedAffinity>  (2) 
-7.53698

>  <mol_id>  (2) 
14743

>  <source_index>  (2) 
1

>  <layer>  (2) 
L2

>  <uniprot>  (2) 
P43166

>  <paff>  (2) 
7.0223000000000004

>  <smiles>  (2) 
CC(C)(C)OC(=O)N1CCN(Cc2cc(=O)oc3cc(OCc4ccc(S(N)(=O)=O)cc4)ccc23)CC1

$$$$
L2:P43166:19893
     RDKit          3D

 50 53  0  0  0  0  0  0  0  0999 V2000
   -6.1204   -1.4228   21.2059 C   0  0  1  0  0  0  0  0  0  0  0  0
   -7.0794   -2.5190   21.1998 N   0  0  0  0  0  0  0  0  0  0  0  0
   -7.5495   -3.1467   22.3046 C   0  0  0  0  0  0  0  0  0  0  0  0
   -8.5589   -4.4590   22.1816 S   0  0  0  0  0  0  0  0  0  0  0  0
   -7.1700   -2.6518   23.5116 N   0  0  0  0  0  0  0  0  0  0  0  0
   -6.3769   -1.5423   23.6857 C   0  0  0  0  0  0  0  0  0  0  0  0
   -5.8474   -0.9438   22.6035 C   0  0  0  0  0  0  0  0  0  0  0  0
   -7.3774   -2.8868   20.3055 H   0  0  0  0  0  0  0  0  0  0  0  0
   -7.5806   -3.0913   24.3301 H   0  0  0  0  0  0  0  0  0  0  0  0
   -2.4786   -2.4864   19.1237 C   0  0  0  0  0  0  0  0  0  0  0  0
   -2.7304   -3.0346   20.3833 C   0  0  0  0  0  0  0  0  0  0  0  0
   -3.9121   -2.7096   21.0509 C   0  0  0  0  0  0  0  0  0  0  0  0
   -4.8497   -1.8363   20.4689 C   0  0  0  0  0  0  0  0  0  0  0  0
   -4.5683   -1.2864   19.2052 C   0  0  0  0  0  0  0  0  0  0  0  0
   -3.3867   -1.6063   18.5334 C   0  0  0  0  0  0  0  0  0  0  0  0
    0.1808   -2.3122   19.3884 N   0  0  0  0  0  0  0  0  0  0  0  0
   -0.9636   -2.8867   18.2944 S   0  0  0  0  0  0  0  0  0  0  0  0
   -0.8063   -4.3228   18.2874 O   0  0  0  0  0  0  0  0  0  0  0  0
   -0.8774   -2.0880   17.0954 O   0  0  0  0  0  0  0  0  0  0  0  0
   -0.2241   -1.7632   20.1456 H   0  0  0  0  0  0  0  0  0  0  0  0
    0.7254   -3.1022   19.7394 H   0  0  0  0  0  0  0  0  0  0  0  0
   -6.2043   -1.0795   25.0737 C   0  0  0  0  0  0  0  0  0  0  0  0
   -6.7312    0.1510   25.4888 C   0  0  0  0  0  0  0  0  0  0  0  0
   -6.5624    0.5829   26.8056 C   0  0  0  0  0  0  0  0  0  0  0  0
   -5.8729   -0.2136   27.7184 C   0  0  0  0  0  0  0  0  0  0  0  0
   -5.3541   -1.4438   27.3183 C   0  0  0  0  0  0  0  0  0  0  0  0
   -5.5220   -1.8781   26.0022 C   0  0  0  0  0  0  0  0  0  0  0  0
   -5.0342    0.2983   22.6842 C   0  0  0  0  0  0  0  0  0  0  0  0
   -5.5525    1.3752   22.3988 O   0  0  0  0  0  0  0  0  0  0  0  0
   -3.5965    0.2239   23.0637 C   0  0  0  0  0  0  0  0  0  0  0  0
   -3.1755   -0.1179   24.3550 C   0  0  0  0  0  0  0  0  0  0  0  0
   -1.8121   -0.1912   24.6503 C   0  0  0  0  0  0  0  0  0  0  0  0
   -0.8663    0.0701   23.6599 C   0  0  0  0  0  0  0  0  0  0  0  0
   -1.2788    0.3999   22.3701 C   0  0  0  0  0  0  0  0  0  0  0  0
   -2.6401    0.4719   22.0704 C   0  0  0  0  0  0  0  0  0  0  0  0
   -6.5411   -0.5899   20.6822 H   0  0  0  0  0  0  0  0  0  0  0  0
   -2.0476   -3.6753   20.8172 H   0  0  0  0  0  0  0  0  0  0  0  0
   -4.1004   -3.1141   21.9815 H   0  0  0  0  0  0  0  0  0  0  0  0
   -5.2432   -0.6387   18.7693 H   0  0  0  0  0  0  0  0  0  0  0  0
   -3.1866   -1.1954   17.6081 H   0  0  0  0  0  0  0  0  0  0  0  0
   -7.2468    0.7411   24.8173 H   0  0  0  0  0  0  0  0  0  0  0  0
   -6.9484    1.4925   27.1034 H   0  0  0  0  0  0  0  0  0  0  0  0
   -5.7465    0.1077   28.6909 H   0  0  0  0  0  0  0  0  0  0  0  0
   -4.8456   -2.0339   27.9953 H   0  0  0  0  0  0  0  0  0  0  0  0
   -5.1417   -2.7922   25.7111 H   0  0  0  0  0  0  0  0  0  0  0  0
   -3.8733   -0.3158   25.0891 H   0  0  0  0  0  0  0  0  0  0  0  0
   -1.5043   -0.4393   25.6036 H   0  0  0  0  0  0  0  0  0  0  0  0
    0.1402    0.0193   23.8820 H   0  0  0  0  0  0  0  0  0  0  0  0
   -0.5780    0.5908   21.6370 H   0  0  0  0  0  0  0  0  0  0  0  0
   -2.9435    0.7089   21.1129 H   0  0  0  0  0  0  0  0  0  0  0  0
  1  2  1  0
  1 36  1  6
  2  3  1  0
  2  8  1  0
  3  4  2  0
  3  5  1  0
  5  6  1  0
  5  9  1  0
  6 22  1  0
  6  7  2  0
  7 28  1  0
  7  1  1  0
 10 11  2  0
 11 12  1  0
 11 37  1  0
 12 13  2  0
 12 38  1  0
 13  1  1  0
 13 14  1  0
 14 15  2  0
 14 39  1  0
 15 10  1  0
 15 40  1  0
 16 17  1  0
 16 20  1  0
 16 21  1  0
 17 18  2  0
 17 19  2  0
 17 10  1  0
 22 23  2  0
 23 24  1  0
 23 41  1  0
 24 25  2  0
 24 42  1  0
 25 26  1  0
 25 43  1  0
 26 27  2  0
 26 44  1  0
 27 22  1  0
 27 45  1  0
 28 29  2  0
 28 30  1  0
 30 31  2  0
 31 32  1  0
 31 46  1  0
 32 33  2  0
 32 47  1  0
 33 34  1  0
 33 48  1  0
 34 35  2  0
 34 49  1  0
 35 30  1  0
 35 50  1  0
M  END
>  <minimizedAffinity>  (3) 
-7.59119

>  <mol_id>  (3) 
19893

>  <source_index>  (3) 
2

>  <layer>  (3) 
L2

>  <uniprot>  (3) 
P43166

>  <paff>  (3) 
7.8239000000000001

>  <smiles>  (3) 
NS(=O)(=O)c1ccc(C2NC(=S)NC(c3ccccc3)=C2C(=O)c2ccccc2)cc1

$$$$
L2:P43166:34535
     RDKit          3D

 43 45  0  0  0  0  0  0  0  0999 V2000
   -7.2875   -3.0172   21.5490 C   0  0  0  0  0  0  0  0  0  0  0  0
   -6.9569   -1.5975   21.8229 C   0  0  0  0  0  0  0  0  0  0  0  0
   -7.6912   -0.6271   22.5001 C   0  0  0  0  0  0  0  0  0  0  0  0
   -7.1056    0.5916   22.3065 N   0  0  0  0  0  0  0  0  0  0  0  0
   -6.0170    0.4192   21.5794 N   0  0  0  0  0  0  0  0  0  0  0  0
   -5.8562   -0.9032   21.3235 N   0  0  0  0  0  0  0  0  0  0  0  0
   -4.6765   -1.3460   20.6535 C   0  0  0  0  0  0  0  0  0  0  0  0
   -4.7598   -1.6780   19.2866 C   0  0  0  0  0  0  0  0  0  0  0  0
   -3.6325   -2.1154   18.5863 C   0  0  0  0  0  0  0  0  0  0  0  0
   -2.4065   -2.2008   19.2454 C   0  0  0  0  0  0  0  0  0  0  0  0
   -2.3021   -1.8670   20.5967 C   0  0  0  0  0  0  0  0  0  0  0  0
   -3.4349   -1.4342   21.2973 C   0  0  0  0  0  0  0  0  0  0  0  0
   -0.9805   -2.7626   18.3528 S   0  0  0  0  0  0  0  0  0  0  0  0
    0.2722   -2.2318   19.3432 N   0  0  0  0  0  0  0  0  0  0  0  0
   -0.9115   -2.0365   17.1083 O   0  0  0  0  0  0  0  0  0  0  0  0
   -0.9404   -4.2054   18.4193 O   0  0  0  0  0  0  0  0  0  0  0  0
   -0.0308   -1.6067   20.0887 H   0  0  0  0  0  0  0  0  0  0  0  0
    0.7793   -3.0424   19.7027 H   0  0  0  0  0  0  0  0  0  0  0  0
   -8.9350   -0.7594   23.2591 C   0  0  0  0  0  0  0  0  0  0  0  0
   -8.9365   -0.7836   24.4859 O   0  0  0  0  0  0  0  0  0  0  0  0
  -10.0673   -0.8643   22.4509 N   0  0  0  0  0  0  0  0  0  0  0  0
   -9.9578   -0.7482   21.4505 H   0  0  0  0  0  0  0  0  0  0  0  0
  -11.3785   -0.8584   22.8558 N   0  0  0  0  0  0  0  0  0  0  0  0
  -12.2267   -0.1092   22.2264 C   0  0  0  0  0  0  0  0  0  0  0  0
  -13.6615   -0.1068   22.5841 C   0  0  0  0  0  0  0  0  0  0  0  0
  -14.0558    0.5121   23.7733 C   0  0  0  0  0  0  0  0  0  0  0  0
  -15.4061    0.5277   24.1315 C   0  0  0  0  0  0  0  0  0  0  0  0
  -16.3613   -0.0733   23.3043 C   0  0  0  0  0  0  0  0  0  0  0  0
  -18.0116   -0.0162   23.8113 Cl  0  0  0  0  0  0  0  0  0  0  0  0
  -15.9620   -0.6915   22.1126 C   0  0  0  0  0  0  0  0  0  0  0  0
  -17.0870   -1.4524   21.0440 Cl  0  0  0  0  0  0  0  0  0  0  0  0
  -14.6112   -0.7078   21.7522 C   0  0  0  0  0  0  0  0  0  0  0  0
   -8.1877   -3.2796   22.0644 H   0  0  0  0  0  0  0  0  0  0  0  0
   -6.4875   -3.6416   21.8881 H   0  0  0  0  0  0  0  0  0  0  0  0
   -7.4258   -3.1546   20.4969 H   0  0  0  0  0  0  0  0  0  0  0  0
   -5.6645   -1.5971   18.7967 H   0  0  0  0  0  0  0  0  0  0  0  0
   -3.7066   -2.3731   17.5897 H   0  0  0  0  0  0  0  0  0  0  0  0
   -1.3923   -1.9390   21.0784 H   0  0  0  0  0  0  0  0  0  0  0  0
   -3.3548   -1.1786   22.2939 H   0  0  0  0  0  0  0  0  0  0  0  0
  -11.8950    0.4978   21.4605 H   0  0  0  0  0  0  0  0  0  0  0  0
  -13.3525    0.9558   24.3844 H   0  0  0  0  0  0  0  0  0  0  0  0
  -15.7000    0.9841   25.0092 H   0  0  0  0  0  0  0  0  0  0  0  0
  -14.3157   -1.1624   20.8741 H   0  0  0  0  0  0  0  0  0  0  0  0
  1  2  1  0
  1 33  1  0
  1 34  1  0
  1 35  1  0
  2  3  2  0
  3 19  1  0
  3  4  1  0
  4  5  2  0
  5  6  1  0
  6  7  1  0
  6  2  1  0
  7  8  2  0
  8  9  1  0
  8 36  1  0
  9 10  2  0
  9 37  1  0
 10 13  1  0
 10 11  1  0
 11 12  2  0
 11 38  1  0
 12  7  1  0
 12 39  1  0
 13 14  1  0
 13 15  2  0
 13 16  2  0
 14 17  1  0
 14 18  1  0
 19 20  2  0
 19 21  1  0
 21 23  1  0
 21 22  1  0
 23 24  2  0
 24 25  1  0
 24 40  1  0
 25 26  2  0
 26 27  1  0
 26 41  1  0
 27 28  2  0
 27 42  1  0
 28 29  1  0
 28 30  1  0
 30 31  1  0
 30 32  2  0
 32 25  1  0
 32 43  1  0
M  END
>  <minimizedAffinity>  (4) 
-6.56962

>  <mol_id>  (4) 
34535

>  <source_index>  (4) 
3

>  <layer>  (4) 
L2

>  <uniprot>  (4) 
P43166

>  <paff>  (4) 
7.2923999999999998

>  <smiles>  (4) 
Cc1c(C(=O)N/N=C/c2ccc(Cl)c(Cl)c2)nnn1-c1ccc(S(N)(=O)=O)cc1

$$$$
L2:P43166:47972
     RDKit          3D

 47 49  0  0  0  0  0  0  0  0999 V2000
   -5.3486   -1.0696   22.3564 C   0  0  0  0  0  0  0  0  0  0  0  0
   -5.3040   -2.1037   21.4976 C   0  0  0  0  0  0  0  0  0  0  0  0
   -6.3538   -2.9901   21.4614 N   0  0  0  0  0  0  0  0  0  0  0  0
   -7.4285   -2.9455   22.2925 C   0  0  0  0  0  0  0  0  0  0  0  0
   -8.6394   -4.0775   22.2057 S   0  0  0  0  0  0  0  0  0  0  0  0
   -7.4657   -1.9442   23.2047 N   0  0  0  0  0  0  0  0  0  0  0  0
   -6.5014   -0.8547   23.2904 C   0  0  2  0  0  0  0  0  0  0  0  0
   -6.3163   -3.7709   20.8131 H   0  0  0  0  0  0  0  0  0  0  0  0
   -8.2772   -1.9097   23.8092 H   0  0  0  0  0  0  0  0  0  0  0  0
   -4.1839   -2.3886   20.5867 C   0  0  0  0  0  0  0  0  0  0  0  0
   -4.1505   -1.8059   19.3121 C   0  0  0  0  0  0  0  0  0  0  0  0
   -3.0841   -2.0636   18.4472 C   0  0  0  0  0  0  0  0  0  0  0  0
   -2.0519   -2.9073   18.8534 C   0  0  0  0  0  0  0  0  0  0  0  0
   -0.7363   -3.2199   17.7903 Cl  0  0  0  0  0  0  0  0  0  0  0  0
   -2.0777   -3.4988   20.1151 C   0  0  0  0  0  0  0  0  0  0  0  0
   -3.1436   -3.2415   20.9811 C   0  0  0  0  0  0  0  0  0  0  0  0
   -7.2085    0.4758   23.0608 C   0  0  0  0  0  0  0  0  0  0  0  0
   -7.3284    1.4267   24.0909 C   0  0  0  0  0  0  0  0  0  0  0  0
   -7.9985    2.6323   23.8740 C   0  0  0  0  0  0  0  0  0  0  0  0
   -8.5677    2.8884   22.6252 C   0  0  0  0  0  0  0  0  0  0  0  0
   -8.4559    1.9602   21.5877 C   0  0  0  0  0  0  0  0  0  0  0  0
   -7.7838    0.7564   21.8092 C   0  0  0  0  0  0  0  0  0  0  0  0
   -9.3921    4.4257   22.3362 S   0  0  0  0  0  0  0  0  0  0  0  0
   -9.0158    4.7241   20.7272 N   0  0  0  0  0  0  0  0  0  0  0  0
   -8.7394    5.4657   23.0966 O   0  0  0  0  0  0  0  0  0  0  0  0
  -10.8205    4.2165   22.3761 O   0  0  0  0  0  0  0  0  0  0  0  0
   -9.8710    4.7358   20.1707 H   0  0  0  0  0  0  0  0  0  0  0  0
   -8.4672    5.5815   20.6556 H   0  0  0  0  0  0  0  0  0  0  0  0
   -4.2591   -0.0852   22.5020 C   0  0  0  0  0  0  0  0  0  0  0  0
   -4.2396    0.9784   21.9008 O   0  0  0  0  0  0  0  0  0  0  0  0
   -3.2908   -0.5632   23.3191 O   0  0  0  0  0  0  0  0  0  0  0  0
   -1.1537   -0.3608   22.2792 C   0  0  0  0  0  0  0  0  0  0  0  0
   -2.0873    0.2116   23.3275 C   0  0  0  0  0  0  0  0  0  0  0  0
   -6.0802   -0.8335   24.2738 H   0  0  0  0  0  0  0  0  0  0  0  0
   -4.9171   -1.1838   19.0114 H   0  0  0  0  0  0  0  0  0  0  0  0
   -3.0608   -1.6307   17.5107 H   0  0  0  0  0  0  0  0  0  0  0  0
   -1.3118   -4.1250   20.4089 H   0  0  0  0  0  0  0  0  0  0  0  0
   -3.1651   -3.6810   21.9146 H   0  0  0  0  0  0  0  0  0  0  0  0
   -6.9166    1.2310   25.0167 H   0  0  0  0  0  0  0  0  0  0  0  0
   -8.0725    3.3292   24.6315 H   0  0  0  0  0  0  0  0  0  0  0  0
   -8.8674    2.1627   20.6632 H   0  0  0  0  0  0  0  0  0  0  0  0
   -7.7086    0.0656   21.0462 H   0  0  0  0  0  0  0  0  0  0  0  0
   -0.2442    0.2027   22.2657 H   0  0  0  0  0  0  0  0  0  0  0  0
   -1.6208   -0.3071   21.3181 H   0  0  0  0  0  0  0  0  0  0  0  0
   -0.9371   -1.3820   22.5139 H   0  0  0  0  0  0  0  0  0  0  0  0
   -2.3109    1.2321   23.0961 H   0  0  0  0  0  0  0  0  0  0  0  0
   -1.6285    0.1748   24.2934 H   0  0  0  0  0  0  0  0  0  0  0  0
  1  2  2  0
  2 10  1  0
  2  3  1  0
  3  4  1  0
  3  8  1  0
  4  5  2  0
  4  6  1  0
  6  7  1  0
  6  9  1  0
  7 17  1  0
  7  1  1  0
  7 34  1  1
 10 11  2  0
 11 12  1  0
 11 35  1  0
 12 13  2  0
 12 36  1  0
 13 14  1  0
 13 15  1  0
 15 16  2  0
 15 37  1  0
 16 10  1  0
 16 38  1  0
 17 18  2  0
 18 19  1  0
 18 39  1  0
 19 20  2  0
 19 40  1  0
 20 23  1  0
 20 21  1  0
 21 22  2  0
 21 41  1  0
 22 17  1  0
 22 42  1  0
 23 24  1  0
 23 25  2  0
 23 26  2  0
 24 27  1  0
 24 28  1  0
 29 30  2  0
 29  1  1  0
 31 29  1  0
 32 33  1  0
 32 43  1  0
 32 44  1  0
 32 45  1  0
 33 31  1  0
 33 46  1  0
 33 47  1  0
M  END
>  <minimizedAffinity>  (5) 
-6.69818

>  <mol_id>  (5) 
47972

>  <source_index>  (5) 
4

>  <layer>  (5) 
L2

>  <uniprot>  (5) 
P43166

>  <paff>  (5) 
7.7446999999999999

>  <smiles>  (5) 
CCOC(=O)C1=C(c2ccc(Cl)cc2)NC(=S)NC1c1ccc(S(N)(=O)=O)cc1

$$$$
L2:P43166:68862
     RDKit          3D

 56 59  0  0  0  0  0  0  0  0999 V2000
   -5.6187   -0.8211   23.7741 N   0  0  0  0  0  0  0  0  0  0  0  0
   -5.8633   -2.1548   24.3299 C   0  0  0  0  0  0  0  0  0  0  0  0
   -5.8277   -2.1154   25.8570 C   0  0  0  0  0  0  0  0  0  0  0  0
   -4.5192   -1.5281   26.3949 C   0  0  0  0  0  0  0  0  0  0  0  0
   -4.1956   -0.2046   25.6892 C   0  0  0  0  0  0  0  0  0  0  0  0
   -4.3067   -0.3025   24.1676 C   0  0  0  0  0  0  0  0  0  0  0  0
   -3.3931   -2.4586   26.2277 N   0  0  0  0  0  0  0  0  0  0  0  0
   -3.5738   -3.1966   25.5532 H   0  0  0  0  0  0  0  0  0  0  0  0
   -2.6292   -2.9132   27.3040 C   0  0  0  0  0  0  0  0  0  0  0  0
   -3.2841   -3.5877   28.3421 C   0  0  0  0  0  0  0  0  0  0  0  0
   -2.5813   -4.1220   29.4271 C   0  0  0  0  0  0  0  0  0  0  0  0
   -1.1873   -4.0204   29.4919 C   0  0  0  0  0  0  0  0  0  0  0  0
   -0.4607   -4.5489   30.5716 C   0  0  0  0  0  0  0  0  0  0  0  0
    0.9304   -4.4469   30.6122 C   0  0  0  0  0  0  0  0  0  0  0  0
    1.6108   -3.8164   29.5746 C   0  0  0  0  0  0  0  0  0  0  0  0
    0.9006   -3.2878   28.4954 C   0  0  0  0  0  0  0  0  0  0  0  0
   -0.5005   -3.3796   28.4398 C   0  0  0  0  0  0  0  0  0  0  0  0
   -1.2318   -2.8503   27.3571 C   0  0  0  0  0  0  0  0  0  0  0  0
   -5.8555   -0.7495   22.3227 C   0  0  0  0  0  0  0  0  0  0  0  0
   -5.8887   -2.0831   21.5545 C   0  0  0  0  0  0  0  0  0  0  0  0
   -2.3674   -2.6585   19.1447 C   0  0  0  0  0  0  0  0  0  0  0  0
   -2.4825   -3.3221   20.3686 C   0  0  0  0  0  0  0  0  0  0  0  0
   -3.6205   -3.1261   21.1516 C   0  0  0  0  0  0  0  0  0  0  0  0
   -4.6452   -2.2733   20.7149 C   0  0  0  0  0  0  0  0  0  0  0  0
   -4.5219   -1.6286   19.4751 C   0  0  0  0  0  0  0  0  0  0  0  0
   -3.3856   -1.8200   18.6877 C   0  0  0  0  0  0  0  0  0  0  0  0
    0.2708   -2.2069   19.1105 N   0  0  0  0  0  0  0  0  0  0  0  0
   -0.9207   -2.9155   18.1537 S   0  0  0  0  0  0  0  0  0  0  0  0
   -1.0139   -2.0851   16.9756 O   0  0  0  0  0  0  0  0  0  0  0  0
   -0.6566   -4.3318   18.0888 O   0  0  0  0  0  0  0  0  0  0  0  0
    0.6519   -1.3986   18.6156 H   0  0  0  0  0  0  0  0  0  0  0  0
   -0.0583   -1.9612   20.0433 H   0  0  0  0  0  0  0  0  0  0  0  0
   -5.1085   -2.8265   23.9777 H   0  0  0  0  0  0  0  0  0  0  0  0
   -6.8305   -2.4876   24.0157 H   0  0  0  0  0  0  0  0  0  0  0  0
   -5.9355   -3.1128   26.2292 H   0  0  0  0  0  0  0  0  0  0  0  0
   -6.6278   -1.4859   26.1862 H   0  0  0  0  0  0  0  0  0  0  0  0
   -4.6579   -1.3542   27.4415 H   0  0  0  0  0  0  0  0  0  0  0  0
   -3.1960    0.0819   25.9414 H   0  0  0  0  0  0  0  0  0  0  0  0
   -4.9109    0.5197   26.0187 H   0  0  0  0  0  0  0  0  0  0  0  0
   -3.5456   -0.9597   23.8019 H   0  0  0  0  0  0  0  0  0  0  0  0
   -4.1857    0.6757   23.7513 H   0  0  0  0  0  0  0  0  0  0  0  0
   -4.3101   -3.6931   28.3057 H   0  0  0  0  0  0  0  0  0  0  0  0
   -3.0955   -4.5953   30.1865 H   0  0  0  0  0  0  0  0  0  0  0  0
   -0.9610   -5.0176   31.3430 H   0  0  0  0  0  0  0  0  0  0  0  0
    1.4540   -4.8385   31.4106 H   0  0  0  0  0  0  0  0  0  0  0  0
    2.6396   -3.7398   29.6031 H   0  0  0  0  0  0  0  0  0  0  0  0
    1.4113   -2.8234   27.7282 H   0  0  0  0  0  0  0  0  0  0  0  0
   -0.7213   -2.4027   26.5798 H   0  0  0  0  0  0  0  0  0  0  0  0
   -6.7986   -0.2668   22.1727 H   0  0  0  0  0  0  0  0  0  0  0  0
   -5.0119   -0.2222   21.9287 H   0  0  0  0  0  0  0  0  0  0  0  0
   -5.9595   -2.8869   22.2572 H   0  0  0  0  0  0  0  0  0  0  0  0
   -6.7355   -2.0715   20.9005 H   0  0  0  0  0  0  0  0  0  0  0  0
   -1.7316   -3.9524   20.6910 H   0  0  0  0  0  0  0  0  0  0  0  0
   -3.7090   -3.6116   22.0579 H   0  0  0  0  0  0  0  0  0  0  0  0
   -5.2768   -1.0083   19.1429 H   0  0  0  0  0  0  0  0  0  0  0  0
   -3.2988   -1.3456   17.7753 H   0  0  0  0  0  0  0  0  0  0  0  0
  1  2  1  0
  2  3  1  0
  2 33  1  0
  2 34  1  0
  3  4  1  0
  3 35  1  0
  3 36  1  0
  4  7  1  0
  4  5  1  0
  4 37  1  0
  5  6  1  0
  5 38  1  0
  5 39  1  0
  6  1  1  0
  6 40  1  0
  6 41  1  0
  7  9  1  0
  7  8  1  0
  9 10  2  0
 10 11  1  0
 10 42  1  0
 11 12  2  0
 11 43  1  0
 12 13  1  0
 13 14  2  0
 13 44  1  0
 14 15  1  0
 14 45  1  0
 15 16  2  0
 15 46  1  0
 16 17  1  0
 16 47  1  0
 17 18  2  0
 17 12  1  0
 18  9  1  0
 18 48  1  0
 19  1  1  0
 19 49  1  0
 19 50  1  0
 20 19  1  0
 20 51  1  0
 20 52  1  0
 21 22  2  0
 22 23  1  0
 22 53  1  0
 23 24  2  0
 23 54  1  0
 24 20  1  0
 24 25  1  0
 25 26  2  0
 25 55  1  0
 26 21  1  0
 26 56  1  0
 27 28  1  0
 27 31  1  0
 27 32  1  0
 28 29  2  0
 28 30  2  0
 28 21  1  0
M  END
>  <minimizedAffinity>  (6) 
-7.14276

>  <mol_id>  (6) 
68862

>  <source_index>  (6) 
5

>  <layer>  (6) 
L2

>  <uniprot>  (6) 
P43166

>  <paff>  (6) 
7.3564999999999996

>  <smiles>  (6) 
NS(=O)(=O)c1ccc(CCN2CCC(Nc3ccc4ccccc4c3)CC2)cc1

$$$$
L2:P43166:105530
     RDKit          3D

 68 71  0  0  0  0  0  0  0  0999 V2000
   -1.9387    0.5469   23.8462 N   0  0  0  0  0  0  0  0  0  0  0  0
   -0.6822    0.2547   23.2848 C   0  0  0  0  0  0  0  0  0  0  0  0
   -0.5262   -0.3568   22.2298 O   0  0  0  0  0  0  0  0  0  0  0  0
   -6.0194   -0.8540   23.4036 N   0  0  0  0  0  0  0  0  0  0  0  0
   -5.0842   -1.1873   24.4882 C   0  0  0  0  0  0  0  0  0  0  0  0
   -3.6314   -1.3230   24.0326 C   0  0  0  0  0  0  0  0  0  0  0  0
   -3.1477   -0.0826   23.2549 C   0  0  0  0  0  0  0  0  0  0  0  0
   -4.2779    0.9299   23.0198 C   0  0  0  0  0  0  0  0  0  0  0  0
   -5.5111    0.1913   22.4983 C   0  0  0  0  0  0  0  0  0  0  0  0
   -6.4929   -2.0270   22.6471 C   0  0  0  0  0  0  0  0  0  0  0  0
   -6.5242   -1.8031   21.1253 C   0  0  0  0  0  0  0  0  0  0  0  0
   -2.6875   -2.6850   19.3756 C   0  0  0  0  0  0  0  0  0  0  0  0
   -3.0341   -3.2548   20.6039 C   0  0  0  0  0  0  0  0  0  0  0  0
   -4.2842   -2.9774   21.1599 C   0  0  0  0  0  0  0  0  0  0  0  0
   -5.1874   -2.1321   20.4957 C   0  0  0  0  0  0  0  0  0  0  0  0
   -4.8190   -1.5585   19.2687 C   0  0  0  0  0  0  0  0  0  0  0  0
   -3.5693   -1.8301   18.7087 C   0  0  0  0  0  0  0  0  0  0  0  0
   -1.0749   -1.9433   17.3707 N   0  0  0  0  0  0  0  0  0  0  0  0
   -1.0961   -3.0170   18.6678 S   0  0  0  0  0  0  0  0  0  0  0  0
   -0.0794   -2.6027   19.6052 O   0  0  0  0  0  0  0  0  0  0  0  0
   -1.1213   -4.3373   18.0791 O   0  0  0  0  0  0  0  0  0  0  0  0
   -1.8509   -1.2828   17.3846 H   0  0  0  0  0  0  0  0  0  0  0  0
   -1.0447   -2.4782   16.5009 H   0  0  0  0  0  0  0  0  0  0  0  0
    0.5578    0.6299   24.0197 C   0  0  0  0  0  0  0  0  0  0  0  0
    0.8865    0.0435   25.2478 C   0  0  0  0  0  0  0  0  0  0  0  0
    2.0534    0.4269   25.9282 C   0  0  0  0  0  0  0  0  0  0  0  0
    2.9058    1.3767   25.3356 C   0  0  0  0  0  0  0  0  0  0  0  0
    2.6056    1.9458   24.0851 C   0  0  0  0  0  0  0  0  0  0  0  0
    1.4270    1.5587   23.4307 C   0  0  0  0  0  0  0  0  0  0  0  0
    2.4027   -0.1960   27.2589 C   0  0  0  0  0  0  0  0  0  0  0  0
    3.6317   -0.7826   27.2687 F   0  0  0  0  0  0  0  0  0  0  0  0
    2.4115    0.7157   28.2689 F   0  0  0  0  0  0  0  0  0  0  0  0
    1.5224   -1.1659   27.6348 F   0  0  0  0  0  0  0  0  0  0  0  0
    3.5383    2.9677   23.4757 C   0  0  0  0  0  0  0  0  0  0  0  0
    3.6542    4.0905   24.2392 F   0  0  0  0  0  0  0  0  0  0  0  0
    3.1063    3.3871   22.2536 F   0  0  0  0  0  0  0  0  0  0  0  0
    4.8049    2.5084   23.2859 F   0  0  0  0  0  0  0  0  0  0  0  0
   -2.1632    1.6553   24.7258 C   0  0  0  0  0  0  0  0  0  0  0  0
   -2.6007    1.4612   26.0435 C   0  0  0  0  0  0  0  0  0  0  0  0
   -2.8120    2.5520   26.8921 C   0  0  0  0  0  0  0  0  0  0  0  0
   -2.5886    3.8482   26.4336 C   0  0  0  0  0  0  0  0  0  0  0  0
   -2.1462    4.0554   25.1293 C   0  0  0  0  0  0  0  0  0  0  0  0
   -1.9321    2.9652   24.2815 C   0  0  0  0  0  0  0  0  0  0  0  0
   -5.3893   -2.1163   24.9227 H   0  0  0  0  0  0  0  0  0  0  0  0
   -5.1166   -0.3773   25.1865 H   0  0  0  0  0  0  0  0  0  0  0  0
   -3.5474   -2.1814   23.3993 H   0  0  0  0  0  0  0  0  0  0  0  0
   -3.0208   -1.4226   24.9056 H   0  0  0  0  0  0  0  0  0  0  0  0
   -2.8447   -0.4402   22.2930 H   0  0  0  0  0  0  0  0  0  0  0  0
   -3.9641    1.6563   22.2995 H   0  0  0  0  0  0  0  0  0  0  0  0
   -4.5156    1.4244   23.9384 H   0  0  0  0  0  0  0  0  0  0  0  0
   -5.2574   -0.2675   21.5655 H   0  0  0  0  0  0  0  0  0  0  0  0
   -6.2885    0.9206   22.4051 H   0  0  0  0  0  0  0  0  0  0  0  0
   -5.8414   -2.8499   22.8552 H   0  0  0  0  0  0  0  0  0  0  0  0
   -7.4988   -2.2175   22.9583 H   0  0  0  0  0  0  0  0  0  0  0  0
   -7.2764   -2.4312   20.6956 H   0  0  0  0  0  0  0  0  0  0  0  0
   -6.7418   -0.7721   20.9390 H   0  0  0  0  0  0  0  0  0  0  0  0
   -2.3718   -3.8751   21.0954 H   0  0  0  0  0  0  0  0  0  0  0  0
   -4.5464   -3.3967   22.0657 H   0  0  0  0  0  0  0  0  0  0  0  0
   -5.4759   -0.9322   18.7775 H   0  0  0  0  0  0  0  0  0  0  0  0
   -3.2987   -1.4028   17.8091 H   0  0  0  0  0  0  0  0  0  0  0  0
    0.2676   -0.6747   25.6553 H   0  0  0  0  0  0  0  0  0  0  0  0
    3.7672    1.6610   25.8277 H   0  0  0  0  0  0  0  0  0  0  0  0
    1.1979    1.9608   22.5083 H   0  0  0  0  0  0  0  0  0  0  0  0
   -2.7684    0.5039   26.3905 H   0  0  0  0  0  0  0  0  0  0  0  0
   -3.1341    2.3965   27.8601 H   0  0  0  0  0  0  0  0  0  0  0  0
   -2.7505    4.6531   27.0589 H   0  0  0  0  0  0  0  0  0  0  0  0
   -1.9764    5.0146   24.7887 H   0  0  0  0  0  0  0  0  0  0  0  0
   -1.6002    3.1259   23.3176 H   0  0  0  0  0  0  0  0  0  0  0  0
  1  2  1  0
  1 38  1  0
  2  3  2  0
  2 24  1  0
  4  5  1  0
  5  6  1  0
  5 44  1  0
  5 45  1  0
  6  7  1  0
  6 46  1  0
  6 47  1  0
  7  1  1  0
  7  8  1  0
  7 48  1  0
  8  9  1  0
  8 49  1  0
  8 50  1  0
  9  4  1  0
  9 51  1  0
  9 52  1  0
 10  4  1  0
 10 53  1  0
 10 54  1  0
 11 10  1  0
 11 55  1  0
 11 56  1  0
 12 13  2  0
 13 14  1  0
 13 57  1  0
 14 15  2  0
 14 58  1  0
 15 11  1  0
 15 16  1  0
 16 17  2  0
 16 59  1  0
 17 12  1  0
 17 60  1  0
 18 19  1  0
 18 22  1  0
 18 23  1  0
 19 20  2  0
 19 21  2  0
 19 12  1  0
 24 25  2  0
 25 26  1  0
 25 61  1  0
 26 30  1  0
 26 27  2  0
 27 28  1  0
 27 62  1  0
 28 34  1  0
 28 29  2  0
 29 24  1  0
 29 63  1  0
 30 31  1  0
 30 32  1  0
 30 33  1  0
 34 35  1  0
 34 36  1  0
 34 37  1  0
 38 39  2  0
 39 40  1  0
 39 64  1  0
 40 41  2  0
 40 65  1  0
 41 42  1  0
 41 66  1  0
 42 43  2  0
 42 67  1  0
 43 38  1  0
 43 68  1  0
M  END
>  <minimizedAffinity>  (7) 
-6.59024

>  <mol_id>  (7) 
105530

>  <source_index>  (7) 
6

>  <layer>  (7) 
L2

>  <uniprot>  (7) 
P43166

>  <paff>  (7) 
7.5528000000000004

>  <smiles>  (7) 
NS(=O)(=O)c1ccc(CCN2CCC(N(C(=O)c3cc(C(F)(F)F)cc(C(F)(F)F)c3)c3ccccc3)CC2)cc1

$$$$
L2:P43166:106434
     RDKit          3D

 49 52  0  0  0  0  0  0  0  0999 V2000
   -4.7728   -0.6511   22.8705 C   0  0  0  0  0  0  0  0  0  0  0  0
   -3.7865    0.2227   22.4063 C   0  0  0  0  0  0  0  0  0  0  0  0
   -2.6327    0.4706   23.1603 C   0  0  0  0  0  0  0  0  0  0  0  0
   -2.4449   -0.1440   24.4032 C   0  0  0  0  0  0  0  0  0  0  0  0
   -1.2548    0.0766   25.2464 C   0  0  0  0  0  0  0  0  0  0  0  0
   -1.1507   -0.6439   26.3717 C   0  0  0  0  0  0  0  0  0  0  0  0
   -2.1649   -1.6037   26.8232 C   0  0  0  0  0  0  0  0  0  0  0  0
   -2.0027   -2.2429   27.8569 O   0  0  0  0  0  0  0  0  0  0  0  0
   -3.3019   -1.7341   26.0473 O   0  0  0  0  0  0  0  0  0  0  0  0
   -3.4324   -1.0282   24.8364 C   0  0  0  0  0  0  0  0  0  0  0  0
   -4.5916   -1.2856   24.0957 C   0  0  0  0  0  0  0  0  0  0  0  0
   -0.3151    1.0255   24.8305 N   0  0  0  0  0  0  0  0  0  0  0  0
    0.5207    0.7246   23.6357 C   0  0  0  0  0  0  0  0  0  0  0  0
    1.4590    1.8968   23.3196 C   0  0  0  0  0  0  0  0  0  0  0  0
    0.7624    3.1134   23.0099 O   0  0  0  0  0  0  0  0  0  0  0  0
   -0.5044    3.2252   23.6760 C   0  0  0  0  0  0  0  0  0  0  0  0
   -0.5585    2.4795   25.0162 C   0  0  0  0  0  0  0  0  0  0  0  0
   -5.8438   -0.7983   22.0345 O   0  0  0  0  0  0  0  0  0  0  0  0
   -5.9776   -2.0497   21.3647 C   0  0  0  0  0  0  0  0  0  0  0  0
   -2.3654   -2.6598   19.1044 C   0  0  0  0  0  0  0  0  0  0  0  0
   -2.5418   -3.3314   20.3159 C   0  0  0  0  0  0  0  0  0  0  0  0
   -3.7149   -3.1318   21.0455 C   0  0  0  0  0  0  0  0  0  0  0  0
   -4.7189   -2.2780   20.5622 C   0  0  0  0  0  0  0  0  0  0  0  0
   -4.5245   -1.6114   19.3424 C   0  0  0  0  0  0  0  0  0  0  0  0
   -3.3539   -1.8065   18.6080 C   0  0  0  0  0  0  0  0  0  0  0  0
    0.2820   -2.2832   19.2230 N   0  0  0  0  0  0  0  0  0  0  0  0
   -0.8790   -2.8998   18.1693 S   0  0  0  0  0  0  0  0  0  0  0  0
   -0.6115   -4.3171   18.0837 O   0  0  0  0  0  0  0  0  0  0  0  0
   -0.9258   -2.0454   17.0070 O   0  0  0  0  0  0  0  0  0  0  0  0
   -0.1217   -1.8021   20.0262 H   0  0  0  0  0  0  0  0  0  0  0  0
    0.9033   -3.0426   19.5071 H   0  0  0  0  0  0  0  0  0  0  0  0
   -3.9099    0.6918   21.4954 H   0  0  0  0  0  0  0  0  0  0  0  0
   -1.9129    1.1137   22.7952 H   0  0  0  0  0  0  0  0  0  0  0  0
   -0.3086   -0.5164   26.9544 H   0  0  0  0  0  0  0  0  0  0  0  0
   -5.3049   -1.9394   24.4545 H   0  0  0  0  0  0  0  0  0  0  0  0
   -0.1182    0.5499   22.7953 H   0  0  0  0  0  0  0  0  0  0  0  0
    1.1121   -0.1434   23.8399 H   0  0  0  0  0  0  0  0  0  0  0  0
    2.0657    1.6294   22.4797 H   0  0  0  0  0  0  0  0  0  0  0  0
    2.0437    2.0805   24.1967 H   0  0  0  0  0  0  0  0  0  0  0  0
   -1.2611    2.8243   23.0344 H   0  0  0  0  0  0  0  0  0  0  0  0
   -0.6592    4.2628   23.8864 H   0  0  0  0  0  0  0  0  0  0  0  0
   -1.5246    2.6187   25.4547 H   0  0  0  0  0  0  0  0  0  0  0  0
    0.2049    2.8727   25.6545 H   0  0  0  0  0  0  0  0  0  0  0  0
   -6.1006   -2.8351   22.0809 H   0  0  0  0  0  0  0  0  0  0  0  0
   -6.8344   -2.0419   20.7238 H   0  0  0  0  0  0  0  0  0  0  0  0
   -1.8115   -3.9695   20.6686 H   0  0  0  0  0  0  0  0  0  0  0  0
   -3.8452   -3.6158   21.9476 H   0  0  0  0  0  0  0  0  0  0  0  0
   -5.2524   -0.9725   18.9861 H   0  0  0  0  0  0  0  0  0  0  0  0
   -3.2196   -1.3243   17.7055 H   0  0  0  0  0  0  0  0  0  0  0  0
  1  2  2  0
  2  3  1  0
  2 32  1  0
  3  4  2  0
  3 33  1  0
  4  5  1  0
  5 12  1  0
  5  6  2  0
  6  7  1  0
  6 34  1  0
  7  8  2  0
  7  9  1  0
  9 10  1  0
 10 11  2  0
 10  4  1  0
 11  1  1  0
 11 35  1  0
 12 13  1  0
 13 14  1  0
 13 36  1  0
 13 37  1  0
 14 15  1  0
 14 38  1  0
 14 39  1  0
 15 16  1  0
 16 17  1  0
 16 40  1  0
 16 41  1  0
 17 12  1  0
 17 42  1  0
 17 43  1  0
 18  1  1  0
 19 18  1  0
 19 44  1  0
 19 45  1  0
 20 21  2  0
 21 22  1  0
 21 46  1  0
 22 23  2  0
 22 47  1  0
 23 19  1  0
 23 24  1  0
 24 25  2  0
 24 48  1  0
 25 20  1  0
 25 49  1  0
 26 27  1  0
 26 30  1  0
 26 31  1  0
 27 28  2  0
 27 29  2  0
 27 20  1  0
M  END
>  <minimizedAffinity>  (8) 
-7.59695

>  <mol_id>  (8) 
106434

>  <source_index>  (8) 
7

>  <layer>  (8) 
L2

>  <uniprot>  (8) 
P43166

>  <paff>  (8) 
8.1023999999999994

>  <smiles>  (8) 
NS(=O)(=O)c1ccc(COc2ccc3c(N4CCOCC4)cc(=O)oc3c2)cc1

$$$$
L2:P43166:124508
     RDKit          3D

 66 69  0  0  0  0  0  0  0  0999 V2000
   -6.7548   -0.8420   23.3731 N   0  0  0  0  0  0  0  0  0  0  0  0
   -6.5610    0.3594   24.1964 C   0  0  0  0  0  0  0  0  0  0  0  0
   -5.1073    0.6178   24.5947 C   0  0  0  0  0  0  0  0  0  0  0  0
   -4.5008   -0.6225   25.2706 C   0  0  0  0  0  0  0  0  0  0  0  0
   -4.7305   -1.8918   24.4366 C   0  0  0  0  0  0  0  0  0  0  0  0
   -6.2050   -2.0254   24.0521 C   0  0  0  0  0  0  0  0  0  0  0  0
   -3.0735   -0.4335   25.6439 N   0  0  0  0  0  0  0  0  0  0  0  0
   -2.5099   -1.2816   26.6026 C   0  0  0  0  0  0  0  0  0  0  0  0
   -3.0504   -2.2984   27.0383 O   0  0  0  0  0  0  0  0  0  0  0  0
   -2.2895    0.3840   24.7621 C   0  0  0  0  0  0  0  0  0  0  0  0
   -1.7727   -0.1271   23.5633 C   0  0  0  0  0  0  0  0  0  0  0  0
   -1.0144    0.6798   22.7104 C   0  0  0  0  0  0  0  0  0  0  0  0
   -0.7675    2.0089   23.0420 C   0  0  0  0  0  0  0  0  0  0  0  0
   -1.2786    2.5331   24.2261 C   0  0  0  0  0  0  0  0  0  0  0  0
   -2.0369    1.7264   25.0792 C   0  0  0  0  0  0  0  0  0  0  0  0
   -1.1936   -0.9194   27.1977 C   0  0  0  0  0  0  0  0  0  0  0  0
   -0.0274   -1.1955   26.5942 C   0  0  0  0  0  0  0  0  0  0  0  0
    1.2768   -0.8225   27.1523 C   0  0  0  0  0  0  0  0  0  0  0  0
    1.7988    0.4714   27.0290 C   0  0  0  0  0  0  0  0  0  0  0  0
    3.0573    0.7804   27.5508 C   0  0  0  0  0  0  0  0  0  0  0  0
    3.8080   -0.2027   28.1914 C   0  0  0  0  0  0  0  0  0  0  0  0
    3.3036   -1.4963   28.3082 C   0  0  0  0  0  0  0  0  0  0  0  0
    2.0454   -1.8060   27.7868 C   0  0  0  0  0  0  0  0  0  0  0  0
   -6.2290   -0.7156   21.9977 C   0  0  0  0  0  0  0  0  0  0  0  0
   -6.1557   -2.0319   21.1991 C   0  0  0  0  0  0  0  0  0  0  0  0
   -2.4314   -2.5943   19.1079 C   0  0  0  0  0  0  0  0  0  0  0  0
   -2.6098   -3.1691   20.3684 C   0  0  0  0  0  0  0  0  0  0  0  0
   -3.8157   -2.9810   21.0455 C   0  0  0  0  0  0  0  0  0  0  0  0
   -4.8500   -2.2335   20.4645 C   0  0  0  0  0  0  0  0  0  0  0  0
   -4.6571   -1.6687   19.1945 C   0  0  0  0  0  0  0  0  0  0  0  0
   -3.4529   -1.8510   18.5127 C   0  0  0  0  0  0  0  0  0  0  0  0
    0.2193   -2.2559   19.3136 N   0  0  0  0  0  0  0  0  0  0  0  0
   -0.9176   -2.8597   18.2361 S   0  0  0  0  0  0  0  0  0  0  0  0
   -0.8672   -1.9896   17.0840 O   0  0  0  0  0  0  0  0  0  0  0  0
   -0.6615   -4.2785   18.1432 O   0  0  0  0  0  0  0  0  0  0  0  0
    0.6979   -1.4564   18.8991 H   0  0  0  0  0  0  0  0  0  0  0  0
    0.8433   -3.0047   19.6123 H   0  0  0  0  0  0  0  0  0  0  0  0
   -7.1397    0.2510   25.0899 H   0  0  0  0  0  0  0  0  0  0  0  0
   -6.8700    1.1933   23.6014 H   0  0  0  0  0  0  0  0  0  0  0  0
   -5.0709    1.4422   25.2758 H   0  0  0  0  0  0  0  0  0  0  0  0
   -4.5431    0.8397   23.7130 H   0  0  0  0  0  0  0  0  0  0  0  0
   -5.0249   -0.7582   26.1935 H   0  0  0  0  0  0  0  0  0  0  0  0
   -4.4380   -2.7466   25.0098 H   0  0  0  0  0  0  0  0  0  0  0  0
   -4.1460   -1.8271   23.5427 H   0  0  0  0  0  0  0  0  0  0  0  0
   -6.7714   -2.1953   24.9439 H   0  0  0  0  0  0  0  0  0  0  0  0
   -6.2725   -2.8390   23.3604 H   0  0  0  0  0  0  0  0  0  0  0  0
   -1.9542   -1.1103   23.3077 H   0  0  0  0  0  0  0  0  0  0  0  0
   -0.6368    0.2893   21.8329 H   0  0  0  0  0  0  0  0  0  0  0  0
   -0.2072    2.6040   22.4119 H   0  0  0  0  0  0  0  0  0  0  0  0
   -1.0974    3.5183   24.4742 H   0  0  0  0  0  0  0  0  0  0  0  0
   -2.4156    2.1236   25.9532 H   0  0  0  0  0  0  0  0  0  0  0  0
   -1.1778   -0.4372   28.1100 H   0  0  0  0  0  0  0  0  0  0  0  0
   -0.0492   -1.6956   25.6917 H   0  0  0  0  0  0  0  0  0  0  0  0
    1.2498    1.2017   26.5492 H   0  0  0  0  0  0  0  0  0  0  0  0
    3.4313    1.7381   27.4616 H   0  0  0  0  0  0  0  0  0  0  0  0
    4.7365    0.0268   28.5790 H   0  0  0  0  0  0  0  0  0  0  0  0
    3.8600   -2.2261   28.7803 H   0  0  0  0  0  0  0  0  0  0  0  0
    1.6793   -2.7673   27.8699 H   0  0  0  0  0  0  0  0  0  0  0  0
   -6.8616   -0.0386   21.4625 H   0  0  0  0  0  0  0  0  0  0  0  0
   -5.2206   -0.3716   22.0960 H   0  0  0  0  0  0  0  0  0  0  0  0
   -6.2878   -2.8465   21.8802 H   0  0  0  0  0  0  0  0  0  0  0  0
   -6.9248   -1.9868   20.4566 H   0  0  0  0  0  0  0  0  0  0  0  0
   -1.8555   -3.7288   20.7959 H   0  0  0  0  0  0  0  0  0  0  0  0
   -3.9472   -3.3955   21.9814 H   0  0  0  0  0  0  0  0  0  0  0  0
   -5.4117   -1.1140   18.7611 H   0  0  0  0  0  0  0  0  0  0  0  0
   -3.3184   -1.4396   17.5758 H   0  0  0  0  0  0  0  0  0  0  0  0
  1  2  1  0
  2  3  1  0
  2 38  1  0
  2 39  1  0
  3  4  1  0
  3 40  1  0
  3 41  1  0
  4  7  1  0
  4  5  1  0
  4 42  1  0
  5  6  1  0
  5 43  1  0
  5 44  1  0
  6  1  1  0
  6 45  1  0
  6 46  1  0
  7  8  1  0
  7 10  1  0
  8  9  2  0
  8 16  1  0
 10 11  2  0
 11 12  1  0
 11 47  1  0
 12 13  2  0
 12 48  1  0
 13 14  1  0
 13 49  1  0
 14 15  2  0
 14 50  1  0
 15 10  1  0
 15 51  1  0
 16 17  2  0
 16 52  1  0
 17 18  1  0
 17 53  1  0
 18 19  2  0
 19 20  1  0
 19 54  1  0
 20 21  2  0
 20 55  1  0
 21 22  1  0
 21 56  1  0
 22 23  2  0
 22 57  1  0
 23 18  1  0
 23 58  1  0
 24  1  1  0
 24 59  1  0
 24 60  1  0
 25 24  1  0
 25 61  1  0
 25 62  1  0
 26 27  2  0
 27 28  1  0
 27 63  1  0
 28 29  2  0
 28 64  1  0
 29 25  1  0
 29 30  1  0
 30 31  2  0
 30 65  1  0
 31 26  1  0
 31 66  1  0
 32 33  1  0
 32 36  1  0
 32 37  1  0
 33 34  2  0
 33 35  2  0
 33 26  1  0
M  END
>  <minimizedAffinity>  (9) 
-6.92407

>  <mol_id>  (9) 
124508

>  <source_index>  (9) 
8

>  <layer>  (9) 
L2

>  <uniprot>  (9) 
P43166

>  <paff>  (9) 
7.5086000000000004

>  <smiles>  (9) 
NS(=O)(=O)c1ccc(CCN2CCC(N(C(=O)/C=C/c3ccccc3)c3ccccc3)CC2)cc1

$$$$
L2:P43166:133999
     RDKit          3D

 50 53  0  0  0  0  0  0  0  0999 V2000
   -6.1444   -1.6551   21.2091 C   0  0  1  0  0  0  0  0  0  0  0  0
   -7.0122   -2.8164   21.2861 N   0  0  0  0  0  0  0  0  0  0  0  0
   -7.5525   -3.3222   22.4198 C   0  0  0  0  0  0  0  0  0  0  0  0
   -8.2835   -4.3060   22.3952 O   0  0  0  0  0  0  0  0  0  0  0  0
   -7.2388   -2.6878   23.5801 N   0  0  0  0  0  0  0  0  0  0  0  0
   -6.4519   -1.5689   23.6820 C   0  0  0  0  0  0  0  0  0  0  0  0
   -5.8903   -1.0682   22.5678 C   0  0  0  0  0  0  0  0  0  0  0  0
   -7.2883   -3.2815   20.4328 H   0  0  0  0  0  0  0  0  0  0  0  0
   -7.6911   -3.0589   24.4081 H   0  0  0  0  0  0  0  0  0  0  0  0
   -2.4702   -2.5692   19.1126 C   0  0  0  0  0  0  0  0  0  0  0  0
   -3.3940   -1.6872   18.5501 C   0  0  0  0  0  0  0  0  0  0  0  0
   -4.5846   -1.4151   19.2251 C   0  0  0  0  0  0  0  0  0  0  0  0
   -4.8613   -2.0160   20.4662 C   0  0  0  0  0  0  0  0  0  0  0  0
   -3.9085   -2.8894   21.0228 C   0  0  0  0  0  0  0  0  0  0  0  0
   -2.7162   -3.1659   20.3512 C   0  0  0  0  0  0  0  0  0  0  0  0
    0.1795   -2.2602   19.3525 N   0  0  0  0  0  0  0  0  0  0  0  0
   -0.9446   -2.8886   18.2675 S   0  0  0  0  0  0  0  0  0  0  0  0
   -0.7483   -4.3165   18.2000 O   0  0  0  0  0  0  0  0  0  0  0  0
   -0.8813   -2.0382   17.1009 O   0  0  0  0  0  0  0  0  0  0  0  0
   -0.2236   -2.0117   20.2546 H   0  0  0  0  0  0  0  0  0  0  0  0
    0.6572   -1.4709   18.9139 H   0  0  0  0  0  0  0  0  0  0  0  0
   -6.3208   -0.9855   25.0290 C   0  0  0  0  0  0  0  0  0  0  0  0
   -6.9209    0.2422   25.3406 C   0  0  0  0  0  0  0  0  0  0  0  0
   -6.7953    0.7852   26.6212 C   0  0  0  0  0  0  0  0  0  0  0  0
   -6.0768    0.1031   27.6015 C   0  0  0  0  0  0  0  0  0  0  0  0
   -5.4832   -1.1222   27.3049 C   0  0  0  0  0  0  0  0  0  0  0  0
   -5.6071   -1.6674   26.0248 C   0  0  0  0  0  0  0  0  0  0  0  0
   -5.0772    0.1761   22.5693 C   0  0  0  0  0  0  0  0  0  0  0  0
   -5.6017    1.2315   22.2221 O   0  0  0  0  0  0  0  0  0  0  0  0
   -3.6350    0.1227   22.9428 C   0  0  0  0  0  0  0  0  0  0  0  0
   -3.3118    0.0612   24.3049 C   0  0  0  0  0  0  0  0  0  0  0  0
   -1.9779    0.0258   24.7122 C   0  0  0  0  0  0  0  0  0  0  0  0
   -0.9588    0.0571   23.7628 C   0  0  0  0  0  0  0  0  0  0  0  0
   -1.2705    0.1273   22.4060 C   0  0  0  0  0  0  0  0  0  0  0  0
   -2.6044    0.1644   21.9945 C   0  0  0  0  0  0  0  0  0  0  0  0
   -6.6350   -0.8869   20.6487 H   0  0  0  0  0  0  0  0  0  0  0  0
   -3.1979   -1.2393   17.6413 H   0  0  0  0  0  0  0  0  0  0  0  0
   -5.2700   -0.7655   18.8088 H   0  0  0  0  0  0  0  0  0  0  0  0
   -4.0932   -3.3303   21.9374 H   0  0  0  0  0  0  0  0  0  0  0  0
   -2.0219   -3.8064   20.7668 H   0  0  0  0  0  0  0  0  0  0  0  0
   -7.4587    0.7479   24.6195 H   0  0  0  0  0  0  0  0  0  0  0  0
   -7.2350    1.6924   26.8418 H   0  0  0  0  0  0  0  0  0  0  0  0
   -5.9844    0.5056   28.5473 H   0  0  0  0  0  0  0  0  0  0  0  0
   -4.9518   -1.6271   28.0313 H   0  0  0  0  0  0  0  0  0  0  0  0
   -5.1706   -2.5777   25.8107 H   0  0  0  0  0  0  0  0  0  0  0  0
   -4.0646    0.0420   25.0106 H   0  0  0  0  0  0  0  0  0  0  0  0
   -1.7461   -0.0236   25.7166 H   0  0  0  0  0  0  0  0  0  0  0  0
    0.0278    0.0283   24.0643 H   0  0  0  0  0  0  0  0  0  0  0  0
   -0.5141    0.1519   21.7043 H   0  0  0  0  0  0  0  0  0  0  0  0
   -2.8316    0.2227   20.9895 H   0  0  0  0  0  0  0  0  0  0  0  0
  1  2  1  0
  1 36  1  6
  2  3  1  0
  2  8  1  0
  3  4  2  0
  3  5  1  0
  5  6  1  0
  5  9  1  0
  6 22  1  0
  6  7  2  0
  7 28  1  0
  7  1  1  0
 10 11  2  0
 11 12  1  0
 11 37  1  0
 12 13  2  0
 12 38  1  0
 13  1  1  0
 13 14  1  0
 14 15  2  0
 14 39  1  0
 15 10  1  0
 15 40  1  0
 16 17  1  0
 16 20  1  0
 16 21  1  0
 17 18  2  0
 17 19  2  0
 17 10  1  0
 22 23  2  0
 23 24  1  0
 23 41  1  0
 24 25  2  0
 24 42  1  0
 25 26  1  0
 25 43  1  0
 26 27  2  0
 26 44  1  0
 27 22  1  0
 27 45  1  0
 28 29  2  0
 28 30  1  0
 30 31  2  0
 31 32  1  0
 31 46  1  0
 32 33  2  0
 32 47  1  0
 33 34  1  0
 33 48  1  0
 34 35  2  0
 34 49  1  0
 35 30  1  0
 35 50  1  0
M  END
>  <minimizedAffinity>  (10) 
-8.07241

>  <mol_id>  (10) 
133999

>  <source_index>  (10) 
9

>  <layer>  (10) 
L2

>  <uniprot>  (10) 
P43166

>  <paff>  (10) 
7.9207999999999998

>  <smiles>  (10) 
NS(=O)(=O)c1ccc(C2NC(=O)NC(c3ccccc3)=C2C(=O)c2ccccc2)cc1

$$$$
