eg5_000
     RDKit          3D

 52 55  0  0  1  0  0  0  0  0999 V2000
   12.6414    0.5071    0.1884 C   0  0  0  0  0  0  0  0  0  0  0  0
   11.8431   -0.3717   -0.7621 C   0  0  0  0  0  0  0  0  0  0  0  0
   10.4043    0.1314   -0.8651 C   0  0  0  0  0  0  0  0  0  0  0  0
   12.4992   -0.3676   -2.1437 C   0  0  0  0  0  0  0  0  0  0  0  0
   11.8462   -1.7899   -0.2382 C   0  0  0  0  0  0  0  0  0  0  0  0
   10.8059   -2.6538   -0.5558 C   0  0  0  0  0  0  0  0  0  0  0  0
   10.7480   -3.9298   -0.0519 C   0  0  0  0  0  0  0  0  0  0  0  0
   11.7552   -4.4127    0.7989 C   0  0  0  0  0  0  0  0  0  0  0  0
   12.8140   -3.5499    1.1241 C   0  0  0  0  0  0  0  0  0  0  0  0
   12.8544   -2.2809    0.5803 C   0  0  0  0  0  0  0  0  0  0  0  0
   13.8598   -3.9988    2.0747 C   0  0  1  0  0  0  0  0  0  0  0  0
   13.5099   -3.5365    3.3874 O   0  0  0  0  0  0  0  0  0  0  0  0
   14.4919   -3.8762    4.3521 C   0  0  0  0  0  0  0  0  0  0  0  0
   14.6997   -5.3731    4.4458 C   0  0  0  0  0  0  0  0  0  0  0  0
   15.0298   -5.9505    3.0801 C   0  0  0  0  0  0  0  0  0  0  0  0
   14.0149   -5.5102    2.0298 C   0  0  1  0  0  0  0  0  0  0  0  0
   12.6793   -6.2201    2.1957 C   0  0  2  0  0  0  0  0  0  0  0  0
   12.7953   -7.7027    1.9688 C   0  0  0  0  0  0  0  0  0  0  0  0
   13.3909   -8.2503    0.8363 C   0  0  0  0  0  0  0  0  0  0  0  0
   13.5929   -9.6216    0.7257 C   0  0  0  0  0  0  0  0  0  0  0  0
   13.1843  -10.4793    1.7354 C   0  0  0  0  0  0  0  0  0  0  0  0
   13.3949  -11.8107    1.7764 O   0  0  0  0  0  0  0  0  0  0  0  0
   12.5316   -9.9115    2.8287 C   0  0  0  0  0  0  0  0  0  0  0  0
   12.1319  -10.7432    3.8052 F   0  0  0  0  0  0  0  0  0  0  0  0
   12.3083   -8.5589    2.9479 C   0  0  0  0  0  0  0  0  0  0  0  0
   11.6843   -5.6892    1.2864 N   0  0  0  0  0  0  0  0  0  0  0  0
   12.3139    0.3384    1.2050 H   0  0  0  0  0  0  0  0  0  0  0  0
   12.5487    1.5659   -0.0472 H   0  0  0  0  0  0  0  0  0  0  0  0
   13.6901    0.2524    0.1405 H   0  0  0  0  0  0  0  0  0  0  0  0
    9.8407   -0.0998    0.0338 H   0  0  0  0  0  0  0  0  0  0  0  0
    9.8957   -0.3262   -1.7115 H   0  0  0  0  0  0  0  0  0  0  0  0
   10.3750    1.2071   -1.0169 H   0  0  0  0  0  0  0  0  0  0  0  0
   13.4988   -0.7901   -2.0961 H   0  0  0  0  0  0  0  0  0  0  0  0
   12.5827    0.6418   -2.5339 H   0  0  0  0  0  0  0  0  0  0  0  0
   11.9179   -0.9585   -2.8418 H   0  0  0  0  0  0  0  0  0  0  0  0
   10.0029   -2.3099   -1.1886 H   0  0  0  0  0  0  0  0  0  0  0  0
    9.8916   -4.5562   -0.2569 H   0  0  0  0  0  0  0  0  0  0  0  0
   13.7092   -1.6668    0.8184 H   0  0  0  0  0  0  0  0  0  0  0  0
   14.8237   -3.5583    1.7833 H   0  0  0  0  0  0  0  0  0  0  0  0
   15.4508   -3.3937    4.1054 H   0  0  0  0  0  0  0  0  0  0  0  0
   14.1468   -3.4597    5.2979 H   0  0  0  0  0  0  0  0  0  0  0  0
   15.5016   -5.5757    5.1594 H   0  0  0  0  0  0  0  0  0  0  0  0
   13.7975   -5.8353    4.8442 H   0  0  0  0  0  0  0  0  0  0  0  0
   16.0185   -5.6028    2.7720 H   0  0  0  0  0  0  0  0  0  0  0  0
   15.0692   -7.0364    3.1204 H   0  0  0  0  0  0  0  0  0  0  0  0
   14.3937   -5.7534    1.0373 H   0  0  0  0  0  0  0  0  0  0  0  0
   12.3373   -6.0708    3.2192 H   0  0  0  0  0  0  0  0  0  0  0  0
   13.6909   -7.6067    0.0232 H   0  0  0  0  0  0  0  0  0  0  0  0
   14.0634  -10.0583   -0.1449 H   0  0  0  0  0  0  0  0  0  0  0  0
   13.7978  -12.2235    0.9748 H   0  0  0  0  0  0  0  0  0  0  0  0
   11.7627   -8.1930    3.8083 H   0  0  0  0  0  0  0  0  0  0  0  0
   10.7583   -6.0660    1.4360 H   0  0  0  0  0  0  0  0  0  0  0  0
  1  2  1  0
  1 27  1  0
  1 28  1  0
  1 29  1  0
  2  3  1  0
  2  4  1  0
  2  5  1  0
  3 30  1  0
  3 31  1  0
  3 32  1  0
  4 33  1  0
  4 34  1  0
  4 35  1  0
  5  6  2  0
  5 10  1  0
  6  7  1  0
  6 36  1  0
  7  8  2  0
  7 37  1  0
  8  9  1  0
  8 26  1  0
  9 10  2  0
  9 11  1  0
 10 38  1  0
 11 12  1  0
 11 16  1  0
 11 39  1  6
 12 13  1  0
 13 14  1  0
 13 40  1  0
 13 41  1  0
 14 15  1  0
 14 42  1  0
 14 43  1  0
 15 16  1  0
 15 44  1  0
 15 45  1  0
 16 17  1  0
 16 46  1  6
 17 18  1  0
 17 26  1  0
 17 47  1  1
 18 19  2  0
 18 25  1  0
 19 20  1  0
 19 48  1  0
 20 21  2  0
 20 49  1  0
 21 22  1  0
 21 23  1  0
 22 50  1  0
 23 24  1  0
 23 25  2  0
 25 51  1  0
 26 52  1  0
M  END
>  <r_exp_dg>  (1) 
-10.6625

>  <mol_id>  (1) 
0

>  <source_index>  (1) 
0

>  <paff>  (1) 
7.8170607166905555

>  <source_r_exp_dg>  (1) 
-10.6625

>  <smiles>  (1) 
CC(C)(C)c1ccc2c(c1)[C@H]1OCCC[C@H]1[C@H](c1ccc(O)c(F)c1)N2

>  <aimnet_interaction_kcal_mol>  (1) 
-52.639841713815933

$$$$
eg5_001
     RDKit          3D

 66 70  0  0  1  0  0  0  0  0999 V2000
   10.1477   -4.2305    8.5817 N   0  0  0  0  0  0  0  0  0  0  0  0
   11.4964   -3.6969    8.2632 C   0  0  0  0  0  0  0  0  0  0  0  0
   11.6971   -3.4775    6.7528 C   0  0  0  0  0  0  0  0  0  0  0  0
   12.7713   -2.5956    6.3890 N   0  0  0  0  0  0  0  0  0  0  0  0
   14.0705   -3.1677    6.1375 C   0  0  0  0  0  0  0  0  0  0  0  0
   14.3570   -3.8195    4.7658 C   0  0  1  0  0  0  0  0  0  0  0  0
   14.4858   -5.3337    4.8453 C   0  0  0  0  0  0  0  0  0  0  0  0
   14.8829   -5.9088    3.4944 C   0  0  0  0  0  0  0  0  0  0  0  0
   13.9475   -5.4162    2.3956 C   0  0  1  0  0  0  0  0  0  0  0  0
   12.5919   -6.1111    2.4387 C   0  0  2  0  0  0  0  0  0  0  0  0
   12.6973   -7.6003    2.2204 C   0  0  0  0  0  0  0  0  0  0  0  0
   13.3211   -8.1018    1.0835 C   0  0  0  0  0  0  0  0  0  0  0  0
   13.5422   -9.4621    0.9488 C   0  0  0  0  0  0  0  0  0  0  0  0
   13.1060  -10.3421    1.9247 C   0  0  0  0  0  0  0  0  0  0  0  0
   12.4197   -9.8524    3.0276 C   0  0  0  0  0  0  0  0  0  0  0  0
   12.1868   -8.4893    3.1538 C   0  0  0  0  0  0  0  0  0  0  0  0
   11.7089   -5.5705    1.4215 N   0  0  0  0  0  0  0  0  0  0  0  0
   11.8096   -4.2779    0.9921 C   0  0  0  0  0  0  0  0  0  0  0  0
   10.8869   -3.7849    0.0528 C   0  0  0  0  0  0  0  0  0  0  0  0
   11.0061   -2.5069   -0.4340 C   0  0  0  0  0  0  0  0  0  0  0  0
   12.0613   -1.6985   -0.0355 C   0  0  0  0  0  0  0  0  0  0  0  0
   12.2032   -0.3614   -0.6561 C   0  0  0  0  0  0  0  0  0  0  0  0
   11.0085    0.2321   -0.8915 F   0  0  0  0  0  0  0  0  0  0  0  0
   12.9231    0.5086    0.0934 F   0  0  0  0  0  0  0  0  0  0  0  0
   12.8417   -0.4214   -1.8716 F   0  0  0  0  0  0  0  0  0  0  0  0
   12.9745   -2.1714    0.8919 C   0  0  0  0  0  0  0  0  0  0  0  0
   12.8290   -3.4237    1.4564 C   0  0  0  0  0  0  0  0  0  0  0  0
   13.7918   -3.9024    2.4762 C   0  0  1  0  0  0  0  0  0  0  0  0
   13.3890   -3.4611    3.7942 O   0  0  0  0  0  0  0  0  0  0  0  0
   12.5337   -1.2423    6.2636 C   0  0  0  0  0  0  0  0  0  0  0  0
   11.4599   -0.6327    6.9327 C   0  0  0  0  0  0  0  0  0  0  0  0
   11.3201    0.7423    6.9422 C   0  0  0  0  0  0  0  0  0  0  0  0
   12.2094    1.5548    6.2525 C   0  0  0  0  0  0  0  0  0  0  0  0
   13.2347    0.9575    5.5316 C   0  0  0  0  0  0  0  0  0  0  0  0
   13.3674   -0.4181    5.5007 C   0  0  0  0  0  0  0  0  0  0  0  0
    9.7986   -4.6651    7.7219 H   0  0  0  0  0  0  0  0  0  0  0  0
    9.5183   -3.4685    8.8060 H   0  0  0  0  0  0  0  0  0  0  0  0
   11.6596   -2.7583    8.7923 H   0  0  0  0  0  0  0  0  0  0  0  0
   12.2391   -4.3969    8.6436 H   0  0  0  0  0  0  0  0  0  0  0  0
   11.8654   -4.4387    6.2744 H   0  0  0  0  0  0  0  0  0  0  0  0
   10.7774   -3.0975    6.3199 H   0  0  0  0  0  0  0  0  0  0  0  0
   14.8152   -2.3929    6.3070 H   0  0  0  0  0  0  0  0  0  0  0  0
   14.2495   -3.9320    6.8967 H   0  0  0  0  0  0  0  0  0  0  0  0
   15.3395   -3.4320    4.4460 H   0  0  0  0  0  0  0  0  0  0  0  0
   15.2289   -5.5917    5.6008 H   0  0  0  0  0  0  0  0  0  0  0  0
   13.5354   -5.7515    5.1838 H   0  0  0  0  0  0  0  0  0  0  0  0
   15.9027   -5.5957    3.2578 H   0  0  0  0  0  0  0  0  0  0  0  0
   14.8890   -6.9955    3.5213 H   0  0  0  0  0  0  0  0  0  0  0  0
   14.3939   -5.6235    1.4228 H   0  0  0  0  0  0  0  0  0  0  0  0
   12.1568   -5.9329    3.4225 H   0  0  0  0  0  0  0  0  0  0  0  0
   13.6077   -7.4285    0.2860 H   0  0  0  0  0  0  0  0  0  0  0  0
   14.0444   -9.8588    0.0802 H   0  0  0  0  0  0  0  0  0  0  0  0
   13.3031  -11.3984    1.8004 H   0  0  0  0  0  0  0  0  0  0  0  0
   12.0619  -10.5184    3.7965 H   0  0  0  0  0  0  0  0  0  0  0  0
   11.5894   -8.1283    3.9759 H   0  0  0  0  0  0  0  0  0  0  0  0
   10.7818   -5.9715    1.4432 H   0  0  0  0  0  0  0  0  0  0  0  0
   10.0528   -4.4069   -0.2456 H   0  0  0  0  0  0  0  0  0  0  0  0
   10.2681   -2.1147   -1.1189 H   0  0  0  0  0  0  0  0  0  0  0  0
   13.8246   -1.5664    1.1656 H   0  0  0  0  0  0  0  0  0  0  0  0
   14.7711   -3.4598    2.2535 H   0  0  0  0  0  0  0  0  0  0  0  0
   10.7390   -1.2400    7.4581 H   0  0  0  0  0  0  0  0  0  0  0  0
   10.5164    1.1970    7.5101 H   0  0  0  0  0  0  0  0  0  0  0  0
   12.1081    2.6300    6.2787 H   0  0  0  0  0  0  0  0  0  0  0  0
   13.9440    1.5777    4.9994 H   0  0  0  0  0  0  0  0  0  0  0  0
   14.0988   -0.8771    4.8574 H   0  0  0  0  0  0  0  0  0  0  0  0
    9.7578   -5.5704    9.7342 H   0  0  0  0  0  0  0  0  0  0  0  0
  1  2  1  0
  1 36  1  0
  1 37  1  0
  1 66  1  0
  2  3  1  0
  2 38  1  0
  2 39  1  0
  3  4  1  0
  3 40  1  0
  3 41  1  0
  4  5  1  0
  4 30  1  0
  5  6  1  0
  5 42  1  0
  5 43  1  0
  6  7  1  0
  6 29  1  0
  6 44  1  6
  7  8  1  0
  7 45  1  0
  7 46  1  0
  8  9  1  0
  8 47  1  0
  8 48  1  0
  9 10  1  0
  9 28  1  0
  9 49  1  6
 10 11  1  0
 10 17  1  0
 10 50  1  1
 11 12  2  0
 11 16  1  0
 12 13  1  0
 12 51  1  0
 13 14  2  0
 13 52  1  0
 14 15  1  0
 14 53  1  0
 15 16  2  0
 15 54  1  0
 16 55  1  0
 17 18  1  0
 17 56  1  0
 18 19  2  0
 18 27  1  0
 19 20  1  0
 19 57  1  0
 20 21  2  0
 20 58  1  0
 21 22  1  0
 21 26  1  0
 22 23  1  0
 22 24  1  0
 22 25  1  0
 26 27  2  0
 26 59  1  0
 27 28  1  0
 28 29  1  0
 28 60  1  6
 30 31  2  0
 30 35  1  0
 31 32  1  0
 31 61  1  0
 32 33  2  0
 32 62  1  0
 33 34  1  0
 33 63  1  0
 34 35  2  0
 34 64  1  0
 35 65  1  0
M  CHG  1   1   1
M  END
>  <r_exp_dg>  (2) 
-10.5962

>  <mol_id>  (2) 
1

>  <source_index>  (2) 
1

>  <paff>  (2) 
7.7684610819886499

>  <source_r_exp_dg>  (2) 
-10.5962

>  <smiles>  (2) 
NCCN(C[C@H]1CC[C@@H]2[C@H](O1)c1cc(C(F)(F)F)ccc1N[C@H]2c1ccccc1)c1ccccc1

>  <aimnet_interaction_kcal_mol>  (2) 
-284.50987622832452

$$$$
eg5_002
     RDKit          3D

 58 61  0  0  1  0  0  0  0  0999 V2000
   12.5429   -4.1050   12.4625 C   0  0  0  0  0  0  0  0  0  0  0  0
   12.1368   -3.4574   11.1634 C   0  0  0  0  0  0  0  0  0  0  0  0
   12.5887   -2.3598   10.8170 O   0  0  0  0  0  0  0  0  0  0  0  0
   11.2745   -4.1558   10.4002 N   0  0  0  0  0  0  0  0  0  0  0  0
   10.8247   -3.6481    9.1363 C   0  0  0  0  0  0  0  0  0  0  0  0
   11.9415   -3.5961    8.1010 C   0  0  0  0  0  0  0  0  0  0  0  0
   11.3220   -3.3772    6.7530 N   0  0  0  0  0  0  0  0  0  0  0  0
   12.1095   -2.6329    5.7349 C   0  0  0  0  0  0  0  0  0  0  0  0
   13.1446   -3.4397    4.9348 C   0  0  1  0  0  0  0  0  0  0  0  0
   13.2548   -4.9301    5.2043 C   0  0  0  0  0  0  0  0  0  0  0  0
   14.1424   -5.5905    4.1516 C   0  0  0  0  0  0  0  0  0  0  0  0
   13.6728   -5.2732    2.7333 C   0  0  1  0  0  0  0  0  0  0  0  0
   12.3820   -6.0252    2.3846 C   0  0  2  0  0  0  0  0  0  0  0  0
   12.6212   -7.5061    2.2259 C   0  0  0  0  0  0  0  0  0  0  0  0
   12.1218   -8.4099    3.1512 C   0  0  0  0  0  0  0  0  0  0  0  0
   12.3890   -9.7670    3.0301 C   0  0  0  0  0  0  0  0  0  0  0  0
   13.0989  -10.2404    1.9356 C   0  0  0  0  0  0  0  0  0  0  0  0
   13.5556   -9.3438    0.9838 C   0  0  0  0  0  0  0  0  0  0  0  0
   13.3261   -7.9856    1.1285 C   0  0  0  0  0  0  0  0  0  0  0  0
   11.7916   -5.5343    1.1458 N   0  0  0  0  0  0  0  0  0  0  0  0
   11.8948   -4.2072    0.8141 C   0  0  0  0  0  0  0  0  0  0  0  0
   10.9793   -3.6283   -0.0647 C   0  0  0  0  0  0  0  0  0  0  0  0
    9.9279   -4.3996   -0.4435 F   0  0  0  0  0  0  0  0  0  0  0  0
   11.0848   -2.3422   -0.5296 C   0  0  0  0  0  0  0  0  0  0  0  0
   12.1861   -1.6021   -0.1246 C   0  0  0  0  0  0  0  0  0  0  0  0
   12.4379    0.1475   -0.8584 Br  0  0  0  0  0  0  0  0  0  0  0  0
   13.0890   -2.1111    0.7861 C   0  0  0  0  0  0  0  0  0  0  0  0
   12.8828   -3.3687    1.3259 C   0  0  0  0  0  0  0  0  0  0  0  0
   13.5421   -3.7587    2.5938 C   0  0  1  0  0  0  0  0  0  0  0  0
   12.7145   -3.1982    3.6181 O   0  0  0  0  0  0  0  0  0  0  0  0
   13.6165   -4.2887   12.4317 H   0  0  0  0  0  0  0  0  0  0  0  0
   12.0234   -5.0388   12.6575 H   0  0  0  0  0  0  0  0  0  0  0  0
   12.3630   -3.4025   13.2736 H   0  0  0  0  0  0  0  0  0  0  0  0
   10.7336   -4.9629   10.7406 H   0  0  0  0  0  0  0  0  0  0  0  0
   10.0256   -4.3052    8.8004 H   0  0  0  0  0  0  0  0  0  0  0  0
   10.4164   -2.6357    9.2486 H   0  0  0  0  0  0  0  0  0  0  0  0
   12.6298   -2.7879    8.3279 H   0  0  0  0  0  0  0  0  0  0  0  0
   12.5075   -4.5182    8.0624 H   0  0  0  0  0  0  0  0  0  0  0  0
   10.9122   -4.2707    6.3923 H   0  0  0  0  0  0  0  0  0  0  0  0
   11.3875   -2.2492    5.0065 H   0  0  0  0  0  0  0  0  0  0  0  0
   12.5623   -1.7837    6.2423 H   0  0  0  0  0  0  0  0  0  0  0  0
   14.1402   -2.9956    5.0920 H   0  0  0  0  0  0  0  0  0  0  0  0
   13.6413   -5.1178    6.2059 H   0  0  0  0  0  0  0  0  0  0  0  0
   12.2603   -5.3569    5.1396 H   0  0  0  0  0  0  0  0  0  0  0  0
   15.1676   -5.2328    4.2781 H   0  0  0  0  0  0  0  0  0  0  0  0
   14.1683   -6.6690    4.2993 H   0  0  0  0  0  0  0  0  0  0  0  0
   14.4303   -5.5902    2.0164 H   0  0  0  0  0  0  0  0  0  0  0  0
   11.6759   -5.8726    3.2026 H   0  0  0  0  0  0  0  0  0  0  0  0
   11.4991   -8.0652    3.9609 H   0  0  0  0  0  0  0  0  0  0  0  0
   12.0378  -10.4436    3.7930 H   0  0  0  0  0  0  0  0  0  0  0  0
   13.3045  -11.2940    1.8014 H   0  0  0  0  0  0  0  0  0  0  0  0
   14.0910   -9.7253    0.1286 H   0  0  0  0  0  0  0  0  0  0  0  0
   13.6747   -7.2950    0.3719 H   0  0  0  0  0  0  0  0  0  0  0  0
   10.8668   -5.9118    0.9907 H   0  0  0  0  0  0  0  0  0  0  0  0
   10.3423   -1.9225   -1.1876 H   0  0  0  0  0  0  0  0  0  0  0  0
   13.9520   -1.5390    1.0738 H   0  0  0  0  0  0  0  0  0  0  0  0
   14.5432   -3.3107    2.6610 H   0  0  0  0  0  0  0  0  0  0  0  0
   10.4893   -2.8163    6.9034 H   0  0  0  0  0  0  0  0  0  0  0  0
  1  2  1  0
  1 31  1  0
  1 32  1  0
  1 33  1  0
  2  3  2  0
  2  4  1  0
  4  5  1  0
  4 34  1  0
  5  6  1  0
  5 35  1  0
  5 36  1  0
  6  7  1  0
  6 37  1  0
  6 38  1  0
  7  8  1  0
  7 39  1  0
  7 58  1  0
  8  9  1  0
  8 40  1  0
  8 41  1  0
  9 10  1  0
  9 30  1  0
  9 42  1  6
 10 11  1  0
 10 43  1  0
 10 44  1  0
 11 12  1  0
 11 45  1  0
 11 46  1  0
 12 13  1  0
 12 29  1  0
 12 47  1  6
 13 14  1  0
 13 20  1  0
 13 48  1  1
 14 15  2  0
 14 19  1  0
 15 16  1  0
 15 49  1  0
 16 17  2  0
 16 50  1  0
 17 18  1  0
 17 51  1  0
 18 19  2  0
 18 52  1  0
 19 53  1  0
 20 21  1  0
 20 54  1  0
 21 22  2  0
 21 28  1  0
 22 23  1  0
 22 24  1  0
 24 25  2  0
 24 55  1  0
 25 26  1  0
 25 27  1  0
 27 28  2  0
 27 56  1  0
 28 29  1  0
 29 30  1  0
 29 57  1  6
M  CHG  1   7   1
M  END
>  <r_exp_dg>  (3) 
-11.2832

>  <mol_id>  (3) 
2

>  <source_index>  (3) 
2

>  <paff>  (3) 
8.2721241758016539

>  <source_r_exp_dg>  (3) 
-11.283200000000001

>  <smiles>  (3) 
CC(=O)NCCNC[C@H]1CC[C@@H]2[C@H](O1)c1cc(Br)cc(F)c1N[C@H]2c1ccccc1

>  <aimnet_interaction_kcal_mol>  (3) 
-215.15346573222786

$$$$
eg5_003
     RDKit          3D

 39 42  0  0  1  0  0  0  0  0999 V2000
   14.2912   -3.8941    4.6074 C   0  0  0  0  0  0  0  0  0  0  0  0
   14.3920   -5.4023    4.7015 C   0  0  0  0  0  0  0  0  0  0  0  0
   14.8168   -5.9830    3.3641 C   0  0  0  0  0  0  0  0  0  0  0  0
   13.9222   -5.4811    2.2343 C   0  0  1  0  0  0  0  0  0  0  0  0
   12.5430   -6.1289    2.2632 C   0  0  2  0  0  0  0  0  0  0  0  0
   12.6331   -7.6217    2.0643 C   0  0  0  0  0  0  0  0  0  0  0  0
   12.1554   -8.4891    3.0357 C   0  0  0  0  0  0  0  0  0  0  0  0
   12.4241   -9.8517    2.9569 C   0  0  0  0  0  0  0  0  0  0  0  0
   13.1085  -10.3635    1.8628 C   0  0  0  0  0  0  0  0  0  0  0  0
   13.5103   -9.5090    0.8499 C   0  0  0  0  0  0  0  0  0  0  0  0
   13.2557   -8.1511    0.9387 C   0  0  0  0  0  0  0  0  0  0  0  0
   11.6929   -5.5634    1.2259 N   0  0  0  0  0  0  0  0  0  0  0  0
   11.8165   -4.2564    0.8274 C   0  0  0  0  0  0  0  0  0  0  0  0
   10.8739   -3.6963   -0.0566 C   0  0  0  0  0  0  0  0  0  0  0  0
   11.0192   -2.4083   -0.5252 C   0  0  0  0  0  0  0  0  0  0  0  0
   12.1202   -1.6645   -0.1350 C   0  0  0  0  0  0  0  0  0  0  0  0
   12.3728   -0.0665   -0.8264 Cl  0  0  0  0  0  0  0  0  0  0  0  0
   13.0341   -2.1733    0.7619 C   0  0  0  0  0  0  0  0  0  0  0  0
   12.8810   -3.4509    1.2684 C   0  0  0  0  0  0  0  0  0  0  0  0
   13.8369   -3.9626    2.2848 C   0  0  1  0  0  0  0  0  0  0  0  0
   13.4128   -3.4901    3.5698 O   0  0  0  0  0  0  0  0  0  0  0  0
   15.2946   -3.4684    4.4421 H   0  0  0  0  0  0  0  0  0  0  0  0
   13.4249   -5.8057    5.0056 H   0  0  0  0  0  0  0  0  0  0  0  0
   15.1064   -5.6686    5.4842 H   0  0  0  0  0  0  0  0  0  0  0  0
   14.8024   -7.0696    3.3911 H   0  0  0  0  0  0  0  0  0  0  0  0
   15.8468   -5.6838    3.1513 H   0  0  0  0  0  0  0  0  0  0  0  0
   14.3801   -5.7311    1.2770 H   0  0  0  0  0  0  0  0  0  0  0  0
   12.0942   -5.9439    3.2392 H   0  0  0  0  0  0  0  0  0  0  0  0
   11.5714   -8.1137    3.8617 H   0  0  0  0  0  0  0  0  0  0  0  0
   12.0966  -10.4975    3.7568 H   0  0  0  0  0  0  0  0  0  0  0  0
   13.3270  -11.4189    1.7738 H   0  0  0  0  0  0  0  0  0  0  0  0
   14.0095   -9.9244   -0.0122 H   0  0  0  0  0  0  0  0  0  0  0  0
   13.5240   -7.4989    0.1184 H   0  0  0  0  0  0  0  0  0  0  0  0
   10.7554   -5.9406    1.2365 H   0  0  0  0  0  0  0  0  0  0  0  0
   10.0044   -4.2746   -0.3434 H   0  0  0  0  0  0  0  0  0  0  0  0
   10.2883   -1.9657   -1.1849 H   0  0  0  0  0  0  0  0  0  0  0  0
   13.8858   -1.5808    1.0497 H   0  0  0  0  0  0  0  0  0  0  0  0
   14.8385   -3.5622    2.0657 H   0  0  0  0  0  0  0  0  0  0  0  0
   13.8971   -3.4607    5.5260 H   0  0  0  0  0  0  0  0  0  0  0  0
  1  2  1  0
  1 21  1  0
  1 22  1  0
  1 39  1  0
  2  3  1  0
  2 23  1  0
  2 24  1  0
  3  4  1  0
  3 25  1  0
  3 26  1  0
  4  5  1  0
  4 20  1  0
  4 27  1  6
  5  6  1  0
  5 12  1  0
  5 28  1  1
  6  7  2  0
  6 11  1  0
  7  8  1  0
  7 29  1  0
  8  9  2  0
  8 30  1  0
  9 10  1  0
  9 31  1  0
 10 11  2  0
 10 32  1  0
 11 33  1  0
 12 13  1  0
 12 34  1  0
 13 14  2  0
 13 19  1  0
 14 15  1  0
 14 35  1  0
 15 16  2  0
 15 36  1  0
 16 17  1  0
 16 18  1  0
 18 19  2  0
 18 37  1  0
 19 20  1  0
 20 21  1  0
 20 38  1  6
M  END
>  <r_exp_dg>  (4) 
-8.42983

>  <mol_id>  (4) 
3

>  <source_index>  (4) 
3

>  <paff>  (4) 
6.180229075143763

>  <source_r_exp_dg>  (4) 
-8.4298300000000008

>  <smiles>  (4) 
Clc1ccc2c(c1)[C@H]1OCCC[C@H]1[C@H](c1ccccc1)N2

>  <aimnet_interaction_kcal_mol>  (4) 
-45.605656356000495

$$$$
eg5_004
     RDKit          3D

 52 55  0  0  1  0  0  0  0  0999 V2000
   10.4155    0.1075   -0.8576 C   0  0  0  0  0  0  0  0  0  0  0  0
   11.8564   -0.3900   -0.7502 C   0  0  0  0  0  0  0  0  0  0  0  0
   12.5153   -0.3727   -2.1302 C   0  0  0  0  0  0  0  0  0  0  0  0
   12.6455    0.4906    0.2064 C   0  0  0  0  0  0  0  0  0  0  0  0
   11.8652   -1.8107   -0.2308 C   0  0  0  0  0  0  0  0  0  0  0  0
   10.8314   -2.6791   -0.5585 C   0  0  0  0  0  0  0  0  0  0  0  0
   10.7624   -3.9498   -0.0429 C   0  0  0  0  0  0  0  0  0  0  0  0
   11.7577   -4.4287    0.8255 C   0  0  0  0  0  0  0  0  0  0  0  0
   12.8174   -3.5653    1.1513 C   0  0  0  0  0  0  0  0  0  0  0  0
   12.8647   -2.2991    0.6008 C   0  0  0  0  0  0  0  0  0  0  0  0
   13.8584   -4.0124    2.1085 C   0  0  1  0  0  0  0  0  0  0  0  0
   13.5165   -3.5264    3.4147 O   0  0  0  0  0  0  0  0  0  0  0  0
   14.4950   -3.8663    4.3834 C   0  0  0  0  0  0  0  0  0  0  0  0
   14.6871   -5.3643    4.4956 C   0  0  0  0  0  0  0  0  0  0  0  0
   15.0142   -5.9590    3.1366 C   0  0  0  0  0  0  0  0  0  0  0  0
   13.9971   -5.5262    2.0858 C   0  0  1  0  0  0  0  0  0  0  0  0
   12.6514   -6.2158    2.2675 C   0  0  2  0  0  0  0  0  0  0  0  0
   12.7351   -7.7086    2.0879 C   0  0  0  0  0  0  0  0  0  0  0  0
   13.3618   -8.2839    0.9872 C   0  0  0  0  0  0  0  0  0  0  0  0
   13.5728   -9.6524    0.9160 C   0  0  0  0  0  0  0  0  0  0  0  0
   13.1186  -10.4832    1.9318 C   0  0  0  0  0  0  0  0  0  0  0  0
   13.3382  -11.8288    1.9475 O   0  0  0  0  0  0  0  0  0  0  0  0
   12.4241   -9.9238    3.0039 C   0  0  0  0  0  0  0  0  0  0  0  0
   12.2090   -8.5570    3.0561 C   0  0  0  0  0  0  0  0  0  0  0  0
   11.6761   -5.6970    1.3279 N   0  0  0  0  0  0  0  0  0  0  0  0
   10.3840    1.1831   -1.0114 H   0  0  0  0  0  0  0  0  0  0  0  0
    9.8490   -0.1240    0.0393 H   0  0  0  0  0  0  0  0  0  0  0  0
    9.9115   -0.3522   -1.7058 H   0  0  0  0  0  0  0  0  0  0  0  0
   11.9380   -0.9593   -2.8352 H   0  0  0  0  0  0  0  0  0  0  0  0
   13.5169   -0.7906   -2.0847 H   0  0  0  0  0  0  0  0  0  0  0  0
   12.5952    0.6409   -2.5103 H   0  0  0  0  0  0  0  0  0  0  0  0
   12.5478    1.5492   -0.0288 H   0  0  0  0  0  0  0  0  0  0  0  0
   13.6962    0.2426    0.1640 H   0  0  0  0  0  0  0  0  0  0  0  0
   12.3128    0.3183    1.2207 H   0  0  0  0  0  0  0  0  0  0  0  0
   10.0393   -2.3400   -1.2073 H   0  0  0  0  0  0  0  0  0  0  0  0
    9.9049   -4.5740   -0.2506 H   0  0  0  0  0  0  0  0  0  0  0  0
   13.7178   -1.6846    0.8447 H   0  0  0  0  0  0  0  0  0  0  0  0
   14.8262   -3.5851    1.8093 H   0  0  0  0  0  0  0  0  0  0  0  0
   15.4586   -3.3961    4.1308 H   0  0  0  0  0  0  0  0  0  0  0  0
   14.1544   -3.4344    5.3240 H   0  0  0  0  0  0  0  0  0  0  0  0
   15.4853   -5.5677    5.2131 H   0  0  0  0  0  0  0  0  0  0  0  0
   13.7787   -5.8129    4.8953 H   0  0  0  0  0  0  0  0  0  0  0  0
   16.0026   -5.6133    2.8244 H   0  0  0  0  0  0  0  0  0  0  0  0
   15.0554   -7.0441    3.1850 H   0  0  0  0  0  0  0  0  0  0  0  0
   14.3713   -5.7854    1.0960 H   0  0  0  0  0  0  0  0  0  0  0  0
   12.3034   -6.0215    3.2820 H   0  0  0  0  0  0  0  0  0  0  0  0
   13.6738   -7.6612    0.1598 H   0  0  0  0  0  0  0  0  0  0  0  0
   14.0771  -10.0945    0.0684 H   0  0  0  0  0  0  0  0  0  0  0  0
   13.7698  -12.1966    1.1428 H   0  0  0  0  0  0  0  0  0  0  0  0
   12.0697  -10.5564    3.8041 H   0  0  0  0  0  0  0  0  0  0  0  0
   11.6284   -8.1521    3.8710 H   0  0  0  0  0  0  0  0  0  0  0  0
   10.7485   -6.0766    1.4601 H   0  0  0  0  0  0  0  0  0  0  0  0
  1  2  1  0
  1 26  1  0
  1 27  1  0
  1 28  1  0
  2  3  1  0
  2  4  1  0
  2  5  1  0
  3 29  1  0
  3 30  1  0
  3 31  1  0
  4 32  1  0
  4 33  1  0
  4 34  1  0
  5  6  2  0
  5 10  1  0
  6  7  1  0
  6 35  1  0
  7  8  2  0
  7 36  1  0
  8  9  1  0
  8 25  1  0
  9 10  2  0
  9 11  1  0
 10 37  1  0
 11 12  1  0
 11 16  1  0
 11 38  1  6
 12 13  1  0
 13 14  1  0
 13 39  1  0
 13 40  1  0
 14 15  1  0
 14 41  1  0
 14 42  1  0
 15 16  1  0
 15 43  1  0
 15 44  1  0
 16 17  1  0
 16 45  1  6
 17 18  1  0
 17 25  1  0
 17 46  1  1
 18 19  2  0
 18 24  1  0
 19 20  1  0
 19 47  1  0
 20 21  2  0
 20 48  1  0
 21 22  1  0
 21 23  1  0
 22 49  1  0
 23 24  2  0
 23 50  1  0
 24 51  1  0
 25 52  1  0
M  END
>  <r_exp_dg>  (5) 
-10.2494

>  <mol_id>  (5) 
4

>  <source_index>  (5) 
4

>  <paff>  (5) 
7.5141901144883496

>  <source_r_exp_dg>  (5) 
-10.2494

>  <smiles>  (5) 
CC(C)(C)c1ccc2c(c1)[C@H]1OCCC[C@H]1[C@H](c1ccc(O)cc1)N2

>  <aimnet_interaction_kcal_mol>  (5) 
-56.34824690699449

$$$$
eg5_005
     RDKit          3D

 51 54  0  0  1  0  0  0  0  0999 V2000
   10.7549   -2.6087    6.1328 C   0  0  0  0  0  0  0  0  0  0  0  0
   11.6109   -3.5183    5.3276 N   0  0  0  0  0  0  0  0  0  0  0  0
   13.0724   -3.3704    5.6202 C   0  0  0  0  0  0  0  0  0  0  0  0
   13.9209   -3.8555    4.4533 C   0  0  1  0  0  0  0  0  0  0  0  0
   14.1683   -5.3555    4.4903 C   0  0  0  0  0  0  0  0  0  0  0  0
   14.7312   -5.8343    3.1634 C   0  0  0  0  0  0  0  0  0  0  0  0
   13.8470   -5.3722    2.0120 C   0  0  1  0  0  0  0  0  0  0  0  0
   12.4707   -6.0331    2.0583 C   0  0  2  0  0  0  0  0  0  0  0  0
   12.5635   -7.5281    1.9945 C   0  0  0  0  0  0  0  0  0  0  0  0
   13.2732   -8.1631    0.9803 C   0  0  0  0  0  0  0  0  0  0  0  0
   13.5846   -9.5096    1.0665 C   0  0  0  0  0  0  0  0  0  0  0  0
   13.1249  -10.2184    2.1567 C   0  0  0  0  0  0  0  0  0  0  0  0
   13.4898  -11.5204    2.2835 F   0  0  0  0  0  0  0  0  0  0  0  0
   12.3276   -9.6438    3.1272 C   0  0  0  0  0  0  0  0  0  0  0  0
   12.0174   -8.2972    3.0123 C   0  0  0  0  0  0  0  0  0  0  0  0
   11.6392   -5.5351    0.9773 N   0  0  0  0  0  0  0  0  0  0  0  0
   11.6898   -4.2075    0.6253 C   0  0  0  0  0  0  0  0  0  0  0  0
   10.6705   -3.6601   -0.1650 C   0  0  0  0  0  0  0  0  0  0  0  0
   10.7181   -2.3449   -0.5586 C   0  0  0  0  0  0  0  0  0  0  0  0
   11.8321   -1.5709   -0.2677 C   0  0  0  0  0  0  0  0  0  0  0  0
   11.9310   -0.2135   -0.8597 C   0  0  0  0  0  0  0  0  0  0  0  0
   12.6017   -0.2244   -2.0525 F   0  0  0  0  0  0  0  0  0  0  0  0
   10.7166    0.3294   -1.1093 F   0  0  0  0  0  0  0  0  0  0  0  0
   12.5935    0.6676   -0.0722 F   0  0  0  0  0  0  0  0  0  0  0  0
   12.8507   -2.0964    0.5088 C   0  0  0  0  0  0  0  0  0  0  0  0
   12.7480   -3.3747    1.0194 C   0  0  0  0  0  0  0  0  0  0  0  0
   13.7123   -3.8620    2.0339 C   0  0  1  0  0  0  0  0  0  0  0  0
   13.2125   -3.4029    3.3147 O   0  0  0  0  0  0  0  0  0  0  0  0
    9.8020   -3.1058    6.2448 H   0  0  0  0  0  0  0  0  0  0  0  0
   10.6364   -1.6667    5.6060 H   0  0  0  0  0  0  0  0  0  0  0  0
   11.1961   -2.4701    7.1158 H   0  0  0  0  0  0  0  0  0  0  0  0
   11.2408   -4.4775    5.4860 H   0  0  0  0  0  0  0  0  0  0  0  0
   13.2529   -2.3104    5.7863 H   0  0  0  0  0  0  0  0  0  0  0  0
   13.2896   -3.9079    6.5410 H   0  0  0  0  0  0  0  0  0  0  0  0
   14.8954   -3.3462    4.4884 H   0  0  0  0  0  0  0  0  0  0  0  0
   14.8601   -5.5823    5.3040 H   0  0  0  0  0  0  0  0  0  0  0  0
   13.2397   -5.8785    4.7261 H   0  0  0  0  0  0  0  0  0  0  0  0
   15.7387   -5.4344    3.0261 H   0  0  0  0  0  0  0  0  0  0  0  0
   14.8247   -6.9159    3.1565 H   0  0  0  0  0  0  0  0  0  0  0  0
   14.3182   -5.6374    1.0666 H   0  0  0  0  0  0  0  0  0  0  0  0
   12.0032   -5.7706    3.0090 H   0  0  0  0  0  0  0  0  0  0  0  0
   13.5796   -7.6011    0.1090 H   0  0  0  0  0  0  0  0  0  0  0  0
   14.1685  -10.0171    0.3139 H   0  0  0  0  0  0  0  0  0  0  0  0
   11.9513  -10.2343    3.9473 H   0  0  0  0  0  0  0  0  0  0  0  0
   11.3273   -7.8554    3.7160 H   0  0  0  0  0  0  0  0  0  0  0  0
   10.7090   -5.9308    1.0156 H   0  0  0  0  0  0  0  0  0  0  0  0
    9.8279   -4.2786   -0.4386 H   0  0  0  0  0  0  0  0  0  0  0  0
    9.8859   -1.9015   -1.0819 H   0  0  0  0  0  0  0  0  0  0  0  0
   13.7297   -1.5116    0.7282 H   0  0  0  0  0  0  0  0  0  0  0  0
   14.6982   -3.4124    1.8792 H   0  0  0  0  0  0  0  0  0  0  0  0
   11.4877   -3.3000    4.3276 H   0  0  0  0  0  0  0  0  0  0  0  0
  1  2  1  0
  1 29  1  0
  1 30  1  0
  1 31  1  0
  2  3  1  0
  2 32  1  0
  2 51  1  0
  3  4  1  0
  3 33  1  0
  3 34  1  0
  4  5  1  0
  4 28  1  0
  4 35  1  1
  5  6  1  0
  5 36  1  0
  5 37  1  0
  6  7  1  0
  6 38  1  0
  6 39  1  0
  7  8  1  0
  7 27  1  0
  7 40  1  6
  8  9  1  0
  8 16  1  0
  8 41  1  1
  9 10  2  0
  9 15  1  0
 10 11  1  0
 10 42  1  0
 11 12  2  0
 11 43  1  0
 12 13  1  0
 12 14  1  0
 14 15  2  0
 14 44  1  0
 15 45  1  0
 16 17  1  0
 16 46  1  0
 17 18  2  0
 17 26  1  0
 18 19  1  0
 18 47  1  0
 19 20  2  0
 19 48  1  0
 20 21  1  0
 20 25  1  0
 21 22  1  0
 21 23  1  0
 21 24  1  0
 25 26  2  0
 25 49  1  0
 26 27  1  0
 27 28  1  0
 27 50  1  6
M  CHG  1   2   1
M  END
>  <r_exp_dg>  (6) 
-9.93104

>  <mol_id>  (6) 
5

>  <source_index>  (6) 
5

>  <paff>  (6) 
7.2808230727299215

>  <source_r_exp_dg>  (6) 
-9.9310399999999994

>  <smiles>  (6) 
CNC[C@H]1CC[C@@H]2[C@H](O1)c1cc(C(F)(F)F)ccc1N[C@H]2c1ccc(F)cc1

>  <aimnet_interaction_kcal_mol>  (6) 
-193.57399384815741

$$$$
eg5_006
     RDKit          3D

 48 51  0  0  1  0  0  0  0  0999 V2000
   10.9267   -2.8386    6.6333 C   0  0  0  0  0  0  0  0  0  0  0  0
   11.6941   -3.5987    5.6135 N   0  0  0  0  0  0  0  0  0  0  0  0
   13.1580   -3.6291    5.9282 C   0  0  0  0  0  0  0  0  0  0  0  0
   14.0001   -4.0958    4.7466 C   0  0  1  0  0  0  0  0  0  0  0  0
   14.1989   -5.6022    4.7233 C   0  0  0  0  0  0  0  0  0  0  0  0
   14.7976   -6.0434    3.4003 C   0  0  0  0  0  0  0  0  0  0  0  0
   13.9632   -5.5077    2.2434 C   0  0  1  0  0  0  0  0  0  0  0  0
   12.5738   -6.1485    2.1980 C   0  0  2  0  0  0  0  0  0  0  0  0
   12.6667   -7.6397    2.0245 C   0  0  0  0  0  0  0  0  0  0  0  0
   13.2832   -8.1827    0.9038 C   0  0  0  0  0  0  0  0  0  0  0  0
   13.5267   -9.5427    0.8319 C   0  0  0  0  0  0  0  0  0  0  0  0
   13.1204  -10.3802    1.8576 C   0  0  0  0  0  0  0  0  0  0  0  0
   12.4451   -9.8502    2.9489 C   0  0  0  0  0  0  0  0  0  0  0  0
   12.1982   -8.4840    3.0183 C   0  0  0  0  0  0  0  0  0  0  0  0
   11.7970   -5.5742    1.1111 N   0  0  0  0  0  0  0  0  0  0  0  0
   11.9193   -4.2344    0.8370 C   0  0  0  0  0  0  0  0  0  0  0  0
   10.9755   -3.6012    0.0251 C   0  0  0  0  0  0  0  0  0  0  0  0
    9.9317   -4.3599   -0.3960 F   0  0  0  0  0  0  0  0  0  0  0  0
   11.0566   -2.2849   -0.3555 C   0  0  0  0  0  0  0  0  0  0  0  0
   12.1776   -1.5700    0.0421 C   0  0  0  0  0  0  0  0  0  0  0  0
   12.4036    0.2251   -0.5640 Br  0  0  0  0  0  0  0  0  0  0  0  0
   13.1312   -2.1448    0.8560 C   0  0  0  0  0  0  0  0  0  0  0  0
   12.9672   -3.4425    1.3090 C   0  0  0  0  0  0  0  0  0  0  0  0
   13.8737   -3.9940    2.3373 C   0  0  1  0  0  0  0  0  0  0  0  0
   13.3343   -3.5767    3.6160 O   0  0  0  0  0  0  0  0  0  0  0  0
    9.8790   -3.0418    6.4673 H   0  0  0  0  0  0  0  0  0  0  0  0
   11.1341   -1.7782    6.5316 H   0  0  0  0  0  0  0  0  0  0  0  0
   11.1990   -3.1985    7.6222 H   0  0  0  0  0  0  0  0  0  0  0  0
   11.2468   -4.5400    5.5835 H   0  0  0  0  0  0  0  0  0  0  0  0
   13.4374   -2.6151    6.2061 H   0  0  0  0  0  0  0  0  0  0  0  0
   13.2922   -4.2762    6.7930 H   0  0  0  0  0  0  0  0  0  0  0  0
   14.9921   -3.6251    4.8202 H   0  0  0  0  0  0  0  0  0  0  0  0
   14.8423   -5.8904    5.5572 H   0  0  0  0  0  0  0  0  0  0  0  0
   13.2431   -6.0988    4.8873 H   0  0  0  0  0  0  0  0  0  0  0  0
   15.8215   -5.6723    3.3144 H   0  0  0  0  0  0  0  0  0  0  0  0
   14.8541   -7.1259    3.3497 H   0  0  0  0  0  0  0  0  0  0  0  0
   14.4644   -5.7300    1.3025 H   0  0  0  0  0  0  0  0  0  0  0  0
   12.0708   -5.9462    3.1468 H   0  0  0  0  0  0  0  0  0  0  0  0
   13.5529   -7.5410    0.0767 H   0  0  0  0  0  0  0  0  0  0  0  0
   14.0181   -9.9734   -0.0272 H   0  0  0  0  0  0  0  0  0  0  0  0
   13.3297  -11.4381    1.7780 H   0  0  0  0  0  0  0  0  0  0  0  0
   12.1038  -10.4854    3.7513 H   0  0  0  0  0  0  0  0  0  0  0  0
   11.6359   -8.0908    3.8521 H   0  0  0  0  0  0  0  0  0  0  0  0
   10.8464   -5.9195    1.0812 H   0  0  0  0  0  0  0  0  0  0  0  0
   10.2787   -1.8250   -0.9417 H   0  0  0  0  0  0  0  0  0  0  0  0
   14.0190   -1.5993    1.1157 H   0  0  0  0  0  0  0  0  0  0  0  0
   14.8772   -3.5654    2.2393 H   0  0  0  0  0  0  0  0  0  0  0  0
   11.5770   -3.1779    4.6806 H   0  0  0  0  0  0  0  0  0  0  0  0
  1  2  1  0
  1 26  1  0
  1 27  1  0
  1 28  1  0
  2  3  1  0
  2 29  1  0
  2 48  1  0
  3  4  1  0
  3 30  1  0
  3 31  1  0
  4  5  1  0
  4 25  1  0
  4 32  1  1
  5  6  1  0
  5 33  1  0
  5 34  1  0
  6  7  1  0
  6 35  1  0
  6 36  1  0
  7  8  1  0
  7 24  1  0
  7 37  1  6
  8  9  1  0
  8 15  1  0
  8 38  1  1
  9 10  2  0
  9 14  1  0
 10 11  1  0
 10 39  1  0
 11 12  2  0
 11 40  1  0
 12 13  1  0
 12 41  1  0
 13 14  2  0
 13 42  1  0
 14 43  1  0
 15 16  1  0
 15 44  1  0
 16 17  2  0
 16 23  1  0
 17 18  1  0
 17 19  1  0
 19 20  2  0
 19 45  1  0
 20 21  1  0
 20 22  1  0
 22 23  2  0
 22 46  1  0
 23 24  1  0
 24 25  1  0
 24 47  1  6
M  CHG  1   2   1
M  END
>  <r_exp_dg>  (7) 
-11.6963

>  <mol_id>  (7) 
6

>  <source_index>  (7) 
6

>  <paff>  (7) 
8.5749954771785788

>  <source_r_exp_dg>  (7) 
-11.696300000000001

>  <smiles>  (7) 
CNC[C@H]1CC[C@@H]2[C@H](O1)c1cc(Br)cc(F)c1N[C@H]2c1ccccc1

>  <aimnet_interaction_kcal_mol>  (7) 
-193.01965816199609

$$$$
eg5_007
     RDKit          3D

 65 68  0  0  1  0  0  0  0  0999 V2000
   12.7392   -4.1090    6.6312 C   0  0  0  0  0  0  0  0  0  0  0  0
   14.1485   -4.0336    7.0068 N   0  0  0  0  0  0  0  0  0  0  0  0
   15.0335   -3.4614    5.9875 C   0  0  0  0  0  0  0  0  0  0  0  0
   15.0796   -4.0614    4.5901 C   0  0  1  0  0  0  0  0  0  0  0  0
   15.2475   -5.5617    4.5452 C   0  0  0  0  0  0  0  0  0  0  0  0
   15.4081   -6.0206    3.1100 C   0  0  0  0  0  0  0  0  0  0  0  0
   14.2833   -5.4968    2.2373 C   0  0  1  0  0  0  0  0  0  0  0  0
   12.9591   -6.2092    2.4888 C   0  0  2  0  0  0  0  0  0  0  0  0
   12.9981   -7.6879    2.1920 C   0  0  0  0  0  0  0  0  0  0  0  0
   13.4868   -8.1659    0.9805 C   0  0  0  0  0  0  0  0  0  0  0  0
   13.5719   -9.5285    0.7479 C   0  0  0  0  0  0  0  0  0  0  0  0
   13.1203  -10.4310    1.6963 C   0  0  0  0  0  0  0  0  0  0  0  0
   12.5633   -9.9579    2.8778 C   0  0  0  0  0  0  0  0  0  0  0  0
   12.5007   -8.5916    3.1195 C   0  0  0  0  0  0  0  0  0  0  0  0
   11.9097   -5.6236    1.6746 N   0  0  0  0  0  0  0  0  0  0  0  0
   11.9910   -4.3585    1.1832 C   0  0  0  0  0  0  0  0  0  0  0  0
   11.0330   -3.9116    0.2531 C   0  0  0  0  0  0  0  0  0  0  0  0
   11.1142   -2.6515   -0.2826 C   0  0  0  0  0  0  0  0  0  0  0  0
   12.1453   -1.7971    0.0888 C   0  0  0  0  0  0  0  0  0  0  0  0
   12.2275   -0.4616   -0.5478 C   0  0  0  0  0  0  0  0  0  0  0  0
   12.9234    0.4441    0.1828 F   0  0  0  0  0  0  0  0  0  0  0  0
   11.0107    0.0902   -0.7777 F   0  0  0  0  0  0  0  0  0  0  0  0
   12.8536   -0.5093   -1.7711 F   0  0  0  0  0  0  0  0  0  0  0  0
   13.0948   -2.2247    1.0038 C   0  0  0  0  0  0  0  0  0  0  0  0
   13.0305   -3.4838    1.5695 C   0  0  0  0  0  0  0  0  0  0  0  0
   14.1370   -3.9929    2.4226 C   0  0  1  0  0  0  0  0  0  0  0  0
   13.9567   -3.6413    3.8146 O   0  0  0  0  0  0  0  0  0  0  0  0
   14.7952   -5.2975    7.9377 S   0  0  0  0  0  0  0  0  0  0  0  0
   16.1874   -4.9348    8.2685 O   0  0  0  0  0  0  0  0  0  0  0  0
   14.5311   -6.6180    7.3173 O   0  0  0  0  0  0  0  0  0  0  0  0
   13.8164   -5.2856    9.5036 C   0  0  0  0  0  0  0  0  0  0  0  0
   14.1163   -6.5238   10.3525 C   0  0  0  0  0  0  0  0  0  0  0  0
   13.0003   -6.8519   11.3630 C   0  0  0  0  0  0  0  0  0  0  0  0
   12.6122   -8.3007   11.3976 N   0  0  0  0  0  0  0  0  0  0  0  0
   12.4709   -3.1694    6.1550 H   0  0  0  0  0  0  0  0  0  0  0  0
   12.1123   -4.2233    7.5061 H   0  0  0  0  0  0  0  0  0  0  0  0
   12.5265   -4.9124    5.9347 H   0  0  0  0  0  0  0  0  0  0  0  0
   14.7567   -2.4145    5.8851 H   0  0  0  0  0  0  0  0  0  0  0  0
   16.0357   -3.4868    6.4015 H   0  0  0  0  0  0  0  0  0  0  0  0
   15.9856   -3.6139    4.1553 H   0  0  0  0  0  0  0  0  0  0  0  0
   16.1168   -5.8468    5.1370 H   0  0  0  0  0  0  0  0  0  0  0  0
   14.3784   -6.0362    4.9879 H   0  0  0  0  0  0  0  0  0  0  0  0
   16.3624   -5.6658    2.7168 H   0  0  0  0  0  0  0  0  0  0  0  0
   15.4390   -7.1015    3.0721 H   0  0  0  0  0  0  0  0  0  0  0  0
   14.5422   -5.6456    1.1905 H   0  0  0  0  0  0  0  0  0  0  0  0
   12.7054   -6.0802    3.5409 H   0  0  0  0  0  0  0  0  0  0  0  0
   13.7809   -7.4701    0.2057 H   0  0  0  0  0  0  0  0  0  0  0  0
   13.9786   -9.9066   -0.1772 H   0  0  0  0  0  0  0  0  0  0  0  0
   13.2035  -11.4900    1.4902 H   0  0  0  0  0  0  0  0  0  0  0  0
   12.1798  -10.6370    3.6229 H   0  0  0  0  0  0  0  0  0  0  0  0
   12.0283   -8.2360    4.0234 H   0  0  0  0  0  0  0  0  0  0  0  0
   10.9967   -6.0459    1.7716 H   0  0  0  0  0  0  0  0  0  0  0  0
   10.2074   -4.5617   -0.0048 H   0  0  0  0  0  0  0  0  0  0  0  0
   10.3621   -2.3120   -0.9820 H   0  0  0  0  0  0  0  0  0  0  0  0
   13.9238   -1.5808    1.2496 H   0  0  0  0  0  0  0  0  0  0  0  0
   15.0690   -3.5289    2.0757 H   0  0  0  0  0  0  0  0  0  0  0  0
   14.0734   -4.3483    9.9908 H   0  0  0  0  0  0  0  0  0  0  0  0
   12.7765   -5.2583    9.2036 H   0  0  0  0  0  0  0  0  0  0  0  0
   14.2440   -7.3826    9.6985 H   0  0  0  0  0  0  0  0  0  0  0  0
   15.0669   -6.3864   10.8632 H   0  0  0  0  0  0  0  0  0  0  0  0
   13.2951   -6.5571   12.3700 H   0  0  0  0  0  0  0  0  0  0  0  0
   12.0767   -6.3167   11.1531 H   0  0  0  0  0  0  0  0  0  0  0  0
   11.5015   -8.3419   11.4839 H   0  0  0  0  0  0  0  0  0  0  0  0
   13.0091   -8.7777   12.1996 H   0  0  0  0  0  0  0  0  0  0  0  0
   12.9341   -8.8500   10.5827 H   0  0  0  0  0  0  0  0  0  0  0  0
  1  2  1  0
  1 35  1  0
  1 36  1  0
  1 37  1  0
  2  3  1  0
  2 28  1  0
  3  4  1  0
  3 38  1  0
  3 39  1  0
  4  5  1  0
  4 27  1  0
  4 40  1  6
  5  6  1  0
  5 41  1  0
  5 42  1  0
  6  7  1  0
  6 43  1  0
  6 44  1  0
  7  8  1  0
  7 26  1  0
  7 45  1  6
  8  9  1  0
  8 15  1  0
  8 46  1  1
  9 10  2  0
  9 14  1  0
 10 11  1  0
 10 47  1  0
 11 12  2  0
 11 48  1  0
 12 13  1  0
 12 49  1  0
 13 14  2  0
 13 50  1  0
 14 51  1  0
 15 16  1  0
 15 52  1  0
 16 17  2  0
 16 25  1  0
 17 18  1  0
 17 53  1  0
 18 19  2  0
 18 54  1  0
 19 20  1  0
 19 24  1  0
 20 21  1  0
 20 22  1  0
 20 23  1  0
 24 25  2  0
 24 55  1  0
 25 26  1  0
 26 27  1  0
 26 56  1  6
 28 29  2  0
 28 30  2  0
 28 31  1  0
 31 32  1  0
 31 57  1  0
 31 58  1  0
 32 33  1  0
 32 59  1  0
 32 60  1  0
 33 34  1  0
 33 61  1  0
 33 62  1  0
 34 63  1  0
 34 64  1  0
 34 65  1  0
M  CHG  1  34   1
M  END
>  <r_exp_dg>  (8) 
-11.1913

>  <mol_id>  (8) 
7

>  <source_index>  (8) 
7

>  <paff>  (8) 
8.2047684800939464

>  <source_r_exp_dg>  (8) 
-11.1913

>  <smiles>  (8) 
CN(C[C@H]1CC[C@@H]2[C@H](O1)c1cc(C(F)(F)F)ccc1N[C@H]2c1ccccc1)S(=O)(=O)CCCN

>  <aimnet_interaction_kcal_mol>  (8) 
-244.93327485605599

$$$$
eg5_008
     RDKit          3D

 48 51  0  0  1  0  0  0  0  0999 V2000
   12.6497    0.4764    0.2162 C   0  0  0  0  0  0  0  0  0  0  0  0
   11.8654   -0.4154   -0.7337 C   0  0  0  0  0  0  0  0  0  0  0  0
   12.5171   -0.3941   -2.1168 C   0  0  0  0  0  0  0  0  0  0  0  0
   10.4204    0.0714   -0.8409 C   0  0  0  0  0  0  0  0  0  0  0  0
   11.8895   -1.8349   -0.2067 C   0  0  0  0  0  0  0  0  0  0  0  0
   10.8669   -2.7175   -0.5317 C   0  0  0  0  0  0  0  0  0  0  0  0
   10.8043   -3.9827    0.0003 C   0  0  0  0  0  0  0  0  0  0  0  0
   11.7992   -4.4443    0.8773 C   0  0  0  0  0  0  0  0  0  0  0  0
   12.8454   -3.5663    1.2038 C   0  0  0  0  0  0  0  0  0  0  0  0
   12.8880   -2.3072    0.6352 C   0  0  0  0  0  0  0  0  0  0  0  0
   13.8842   -3.9929    2.1744 C   0  0  1  0  0  0  0  0  0  0  0  0
   13.5130   -3.5354    3.4822 O   0  0  0  0  0  0  0  0  0  0  0  0
   14.4905   -3.8592    4.4575 C   0  0  0  0  0  0  0  0  0  0  0  0
   14.7264   -5.3529    4.5529 C   0  0  0  0  0  0  0  0  0  0  0  0
   15.0779   -5.9237    3.1904 C   0  0  0  0  0  0  0  0  0  0  0  0
   14.0582   -5.5011    2.1402 C   0  0  1  0  0  0  0  0  0  0  0  0
   12.7281   -6.2309    2.3048 C   0  0  2  0  0  0  0  0  0  0  0  0
   12.8751   -7.6957    2.0536 C   0  0  0  0  0  0  0  0  0  0  0  0
   13.4668   -8.2436    0.8737 C   0  0  0  0  0  0  0  0  0  0  0  0
   13.5589   -9.5992    0.9103 C   0  0  0  0  0  0  0  0  0  0  0  0
   12.8590  -10.2322    2.3505 S   0  0  0  0  0  0  0  0  0  0  0  0
   12.4769   -8.6520    2.9350 C   0  0  0  0  0  0  0  0  0  0  0  0
   11.7311   -5.7104    1.3909 N   0  0  0  0  0  0  0  0  0  0  0  0
   12.5438    1.5326   -0.0258 H   0  0  0  0  0  0  0  0  0  0  0  0
   13.7022    0.2364    0.1737 H   0  0  0  0  0  0  0  0  0  0  0  0
   12.3190    0.3089    1.2321 H   0  0  0  0  0  0  0  0  0  0  0  0
   12.5870    0.6208   -2.4960 H   0  0  0  0  0  0  0  0  0  0  0  0
   11.9395   -0.9823   -2.8202 H   0  0  0  0  0  0  0  0  0  0  0  0
   13.5222   -0.8036   -2.0777 H   0  0  0  0  0  0  0  0  0  0  0  0
    9.9181   -0.3979   -1.6849 H   0  0  0  0  0  0  0  0  0  0  0  0
   10.3842    1.1457   -1.0050 H   0  0  0  0  0  0  0  0  0  0  0  0
    9.8556   -0.1536    0.0586 H   0  0  0  0  0  0  0  0  0  0  0  0
   10.0769   -2.3928   -1.1906 H   0  0  0  0  0  0  0  0  0  0  0  0
    9.9512   -4.6142   -0.2036 H   0  0  0  0  0  0  0  0  0  0  0  0
   13.7377   -1.6854    0.8711 H   0  0  0  0  0  0  0  0  0  0  0  0
   14.8444   -3.5387    1.8922 H   0  0  0  0  0  0  0  0  0  0  0  0
   15.4422   -3.3573    4.2225 H   0  0  0  0  0  0  0  0  0  0  0  0
   14.1266   -3.4512    5.3999 H   0  0  0  0  0  0  0  0  0  0  0  0
   15.5244   -5.5408    5.2745 H   0  0  0  0  0  0  0  0  0  0  0  0
   13.8281   -5.8334    4.9397 H   0  0  0  0  0  0  0  0  0  0  0  0
   16.0604   -5.5553    2.8865 H   0  0  0  0  0  0  0  0  0  0  0  0
   15.1444   -7.0080    3.2222 H   0  0  0  0  0  0  0  0  0  0  0  0
   14.4395   -5.7460    1.1497 H   0  0  0  0  0  0  0  0  0  0  0  0
   12.3818   -6.1081    3.3330 H   0  0  0  0  0  0  0  0  0  0  0  0
   13.8064   -7.6416    0.0454 H   0  0  0  0  0  0  0  0  0  0  0  0
   13.9953  -10.2722    0.1943 H   0  0  0  0  0  0  0  0  0  0  0  0
   11.9606   -8.5188    3.8744 H   0  0  0  0  0  0  0  0  0  0  0  0
   10.8122   -6.1082    1.5249 H   0  0  0  0  0  0  0  0  0  0  0  0
  1  2  1  0
  1 24  1  0
  1 25  1  0
  1 26  1  0
  2  3  1  0
  2  4  1  0
  2  5  1  0
  3 27  1  0
  3 28  1  0
  3 29  1  0
  4 30  1  0
  4 31  1  0
  4 32  1  0
  5  6  2  0
  5 10  1  0
  6  7  1  0
  6 33  1  0
  7  8  2  0
  7 34  1  0
  8  9  1  0
  8 23  1  0
  9 10  2  0
  9 11  1  0
 10 35  1  0
 11 12  1  0
 11 16  1  0
 11 36  1  6
 12 13  1  0
 13 14  1  0
 13 37  1  0
 13 38  1  0
 14 15  1  0
 14 39  1  0
 14 40  1  0
 15 16  1  0
 15 41  1  0
 15 42  1  0
 16 17  1  0
 16 43  1  6
 17 18  1  0
 17 23  1  0
 17 44  1  1
 18 19  1  0
 18 22  2  0
 19 20  2  0
 19 45  1  0
 20 21  1  0
 20 46  1  0
 21 22  1  0
 22 47  1  0
 23 48  1  0
M  END
>  <r_exp_dg>  (9) 
-9.49772

>  <mol_id>  (9) 
8

>  <source_index>  (9) 
8

>  <paff>  (9) 
6.9631390557610739

>  <source_r_exp_dg>  (9) 
-9.4977199999999993

>  <smiles>  (9) 
CC(C)(C)c1ccc2c(c1)[C@H]1OCCC[C@H]1[C@H](c1ccsc1)N2

>  <aimnet_interaction_kcal_mol>  (9) 
-46.575478345792

$$$$
eg5_009
     RDKit          3D

 71 75  0  0  1  0  0  0  0  0999 V2000
   19.9279   -3.4843    9.6402 C   0  0  0  0  0  0  0  0  0  0  0  0
   18.6028   -3.8389    9.0468 C   0  0  0  0  0  0  0  0  0  0  0  0
   17.6399   -2.8642    8.7943 C   0  0  0  0  0  0  0  0  0  0  0  0
   16.4336   -3.1912    8.2007 C   0  0  0  0  0  0  0  0  0  0  0  0
   16.1582   -4.5053    7.8290 C   0  0  0  0  0  0  0  0  0  0  0  0
   14.8773   -4.9116    7.2006 C   0  0  0  0  0  0  0  0  0  0  0  0
   14.4135   -6.0281    7.3891 O   0  0  0  0  0  0  0  0  0  0  0  0
   14.2464   -3.9764    6.3932 N   0  0  0  0  0  0  0  0  0  0  0  0
   12.8396   -4.2450    6.1121 C   0  0  0  0  0  0  0  0  0  0  0  0
   11.9755   -3.0521    5.7156 C   0  0  0  0  0  0  0  0  0  0  0  0
   11.2065   -3.4106    4.4880 N   0  0  0  0  0  0  0  0  0  0  0  0
   15.0267   -3.2258    5.4172 C   0  0  0  0  0  0  0  0  0  0  0  0
   15.1051   -3.8566    4.0447 C   0  0  1  0  0  0  0  0  0  0  0  0
   15.3841   -5.3411    4.0407 C   0  0  0  0  0  0  0  0  0  0  0  0
   15.3900   -5.8691    2.6178 C   0  0  0  0  0  0  0  0  0  0  0  0
   14.1690   -5.4308    1.8276 C   0  0  1  0  0  0  0  0  0  0  0  0
   12.8772   -6.1307    2.2369 C   0  0  2  0  0  0  0  0  0  0  0  0
   12.9040   -7.6250    2.0493 C   0  0  0  0  0  0  0  0  0  0  0  0
   12.4057   -8.4542    3.0447 C   0  0  0  0  0  0  0  0  0  0  0  0
   12.5065   -9.8361    2.9259 C   0  0  0  0  0  0  0  0  0  0  0  0
   13.1061  -10.3923    1.8035 C   0  0  0  0  0  0  0  0  0  0  0  0
   13.5530   -9.5668    0.7854 C   0  0  0  0  0  0  0  0  0  0  0  0
   13.4191   -8.1933    0.8898 C   0  0  0  0  0  0  0  0  0  0  0  0
   11.7653   -5.5930    1.4577 N   0  0  0  0  0  0  0  0  0  0  0  0
   11.7751   -4.3335    0.9309 C   0  0  0  0  0  0  0  0  0  0  0  0
   10.7362   -3.8953    0.0911 C   0  0  0  0  0  0  0  0  0  0  0  0
   10.7261   -2.6138   -0.4056 C   0  0  0  0  0  0  0  0  0  0  0  0
   11.7744   -1.7430   -0.1331 C   0  0  0  0  0  0  0  0  0  0  0  0
   11.7714   -0.4020   -0.7736 C   0  0  0  0  0  0  0  0  0  0  0  0
   12.5324    0.5027   -0.1125 F   0  0  0  0  0  0  0  0  0  0  0  0
   12.2641   -0.4427   -2.0481 F   0  0  0  0  0  0  0  0  0  0  0  0
   10.5280    0.1257   -0.8625 F   0  0  0  0  0  0  0  0  0  0  0  0
   12.8255   -2.1675    0.6605 C   0  0  0  0  0  0  0  0  0  0  0  0
   12.8318   -3.4405    1.1959 C   0  0  0  0  0  0  0  0  0  0  0  0
   14.0059   -3.9269    1.9464 C   0  0  1  0  0  0  0  0  0  0  0  0
   13.8915   -3.5485    3.3428 O   0  0  0  0  0  0  0  0  0  0  0  0
   17.0974   -5.4922    8.1248 C   0  0  0  0  0  0  0  0  0  0  0  0
   18.3032   -5.1597    8.7136 C   0  0  0  0  0  0  0  0  0  0  0  0
   20.2591   -4.2386   10.3516 H   0  0  0  0  0  0  0  0  0  0  0  0
   19.8874   -2.5259   10.1528 H   0  0  0  0  0  0  0  0  0  0  0  0
   20.6950   -3.4114    8.8669 H   0  0  0  0  0  0  0  0  0  0  0  0
   17.8374   -1.8369    9.0711 H   0  0  0  0  0  0  0  0  0  0  0  0
   15.6919   -2.4196    8.0414 H   0  0  0  0  0  0  0  0  0  0  0  0
   12.7617   -4.9912    5.3268 H   0  0  0  0  0  0  0  0  0  0  0  0
   12.4407   -4.7130    7.0008 H   0  0  0  0  0  0  0  0  0  0  0  0
   11.2542   -2.7946    6.4868 H   0  0  0  0  0  0  0  0  0  0  0  0
   12.5500   -2.1628    5.4759 H   0  0  0  0  0  0  0  0  0  0  0  0
   10.7230   -2.5720    4.0587 H   0  0  0  0  0  0  0  0  0  0  0  0
   10.5320   -4.1558    4.7221 H   0  0  0  0  0  0  0  0  0  0  0  0
   14.6161   -2.2270    5.3163 H   0  0  0  0  0  0  0  0  0  0  0  0
   16.0379   -3.1178    5.7932 H   0  0  0  0  0  0  0  0  0  0  0  0
   15.9361   -3.3630    3.5224 H   0  0  0  0  0  0  0  0  0  0  0  0
   16.3499   -5.5143    4.5164 H   0  0  0  0  0  0  0  0  0  0  0  0
   14.6467   -5.8766    4.6330 H   0  0  0  0  0  0  0  0  0  0  0  0
   16.2827   -5.5056    2.1052 H   0  0  0  0  0  0  0  0  0  0  0  0
   15.4541   -6.9463    2.6397 H   0  0  0  0  0  0  0  0  0  0  0  0
   14.3382   -5.6491    0.7760 H   0  0  0  0  0  0  0  0  0  0  0  0
   12.7019   -5.9391    3.2998 H   0  0  0  0  0  0  0  0  0  0  0  0
   11.9297   -8.0380    3.9224 H   0  0  0  0  0  0  0  0  0  0  0  0
   12.1243  -10.4595    3.7198 H   0  0  0  0  0  0  0  0  0  0  0  0
   13.2272  -11.4614    1.6956 H   0  0  0  0  0  0  0  0  0  0  0  0
   13.9961  -10.0163   -0.0906 H   0  0  0  0  0  0  0  0  0  0  0  0
   13.7097   -7.5654    0.0594 H   0  0  0  0  0  0  0  0  0  0  0  0
   10.8774   -6.0419    1.6352 H   0  0  0  0  0  0  0  0  0  0  0  0
    9.9284   -4.5726   -0.1398 H   0  0  0  0  0  0  0  0  0  0  0  0
    9.8983   -2.2726   -1.0076 H   0  0  0  0  0  0  0  0  0  0  0  0
   13.6644   -1.5155    0.8478 H   0  0  0  0  0  0  0  0  0  0  0  0
   14.9063   -3.4556    1.5409 H   0  0  0  0  0  0  0  0  0  0  0  0
   16.8532   -6.5221    7.9057 H   0  0  0  0  0  0  0  0  0  0  0  0
   19.0274   -5.9330    8.9363 H   0  0  0  0  0  0  0  0  0  0  0  0
   11.8837   -3.7517    3.7963 H   0  0  0  0  0  0  0  0  0  0  0  0
  1  2  1  0
  1 39  1  0
  1 40  1  0
  1 41  1  0
  2  3  2  0
  2 38  1  0
  3  4  1  0
  3 42  1  0
  4  5  2  0
  4 43  1  0
  5  6  1  0
  5 37  1  0
  6  7  2  0
  6  8  1  0
  8  9  1  0
  8 12  1  0
  9 10  1  0
  9 44  1  0
  9 45  1  0
 10 11  1  0
 10 46  1  0
 10 47  1  0
 11 48  1  0
 11 49  1  0
 11 71  1  0
 12 13  1  0
 12 50  1  0
 12 51  1  0
 13 14  1  0
 13 36  1  0
 13 52  1  6
 14 15  1  0
 14 53  1  0
 14 54  1  0
 15 16  1  0
 15 55  1  0
 15 56  1  0
 16 17  1  0
 16 35  1  0
 16 57  1  6
 17 18  1  0
 17 24  1  0
 17 58  1  1
 18 19  2  0
 18 23  1  0
 19 20  1  0
 19 59  1  0
 20 21  2  0
 20 60  1  0
 21 22  1  0
 21 61  1  0
 22 23  2  0
 22 62  1  0
 23 63  1  0
 24 25  1  0
 24 64  1  0
 25 26  2  0
 25 34  1  0
 26 27  1  0
 26 65  1  0
 27 28  2  0
 27 66  1  0
 28 29  1  0
 28 33  1  0
 29 30  1  0
 29 31  1  0
 29 32  1  0
 33 34  2  0
 33 67  1  0
 34 35  1  0
 35 36  1  0
 35 68  1  6
 37 38  2  0
 37 69  1  0
 38 70  1  0
M  CHG  1  11   1
M  END
>  <r_exp_dg>  (10) 
-9.86313

>  <mol_id>  (10) 
9

>  <source_index>  (10) 
9

>  <paff>  (10) 
7.2310348410061023

>  <source_r_exp_dg>  (10) 
-9.86313

>  <smiles>  (10) 
Cc1ccc(C(=O)N(CCN)C[C@H]2CC[C@@H]3[C@H](O2)c2cc(C(F)(F)F)ccc2N[C@H]3c2ccccc2)cc1

>  <aimnet_interaction_kcal_mol>  (10) 
-207.78337740577237

$$$$
eg5_010
     RDKit          3D

 61 64  0  0  1  0  0  0  0  0999 V2000
   15.8564   -5.1601    7.5909 O   0  0  0  0  0  0  0  0  0  0  0  0
   14.6535   -4.8837    7.6886 C   0  0  0  0  0  0  0  0  0  0  0  0
   13.8817   -5.2831    8.7297 N   0  0  0  0  0  0  0  0  0  0  0  0
   14.4438   -5.8856    9.9215 C   0  0  0  0  0  0  0  0  0  0  0  0
   13.9328   -5.2384   11.2011 C   0  0  0  0  0  0  0  0  0  0  0  0
   12.4488   -5.4186   11.4546 C   0  0  0  0  0  0  0  0  0  0  0  0
   11.6864   -4.7146   10.4906 O   0  0  0  0  0  0  0  0  0  0  0  0
   14.0028   -4.1210    6.7434 N   0  0  0  0  0  0  0  0  0  0  0  0
   14.7327   -3.3935    5.7379 C   0  0  0  0  0  0  0  0  0  0  0  0
   14.8613   -4.0631    4.3766 C   0  0  1  0  0  0  0  0  0  0  0  0
   14.9539   -5.5733    4.4154 C   0  0  0  0  0  0  0  0  0  0  0  0
   15.1315   -6.1110    3.0079 C   0  0  0  0  0  0  0  0  0  0  0  0
   14.0665   -5.5676    2.0654 C   0  0  1  0  0  0  0  0  0  0  0  0
   12.7024   -6.2054    2.2932 C   0  0  2  0  0  0  0  0  0  0  0  0
   12.7271   -7.6950    2.0640 C   0  0  0  0  0  0  0  0  0  0  0  0
   12.2407   -8.5598    3.0326 C   0  0  0  0  0  0  0  0  0  0  0  0
   12.4635   -9.9278    2.9257 C   0  0  0  0  0  0  0  0  0  0  0  0
   13.1172  -10.4428    1.8142 C   0  0  0  0  0  0  0  0  0  0  0  0
   13.5204   -9.5876    0.8030 C   0  0  0  0  0  0  0  0  0  0  0  0
   13.2982   -8.2258    0.9124 C   0  0  0  0  0  0  0  0  0  0  0  0
   11.7170   -5.6138    1.4027 N   0  0  0  0  0  0  0  0  0  0  0  0
   11.8323   -4.3414    0.9369 C   0  0  0  0  0  0  0  0  0  0  0  0
   10.8655   -3.8212    0.0531 C   0  0  0  0  0  0  0  0  0  0  0  0
   10.9714   -2.5359   -0.4179 C   0  0  0  0  0  0  0  0  0  0  0  0
   12.0496   -1.7392   -0.0572 C   0  0  0  0  0  0  0  0  0  0  0  0
   12.1753   -0.3895   -0.6495 C   0  0  0  0  0  0  0  0  0  0  0  0
   10.9771    0.2041   -0.8679 F   0  0  0  0  0  0  0  0  0  0  0  0
   12.8955    0.4701    0.1120 F   0  0  0  0  0  0  0  0  0  0  0  0
   12.8080   -0.4177   -1.8720 F   0  0  0  0  0  0  0  0  0  0  0  0
   13.0103   -2.2399    0.8052 C   0  0  0  0  0  0  0  0  0  0  0  0
   12.9139   -3.5173    1.3166 C   0  0  0  0  0  0  0  0  0  0  0  0
   13.9842   -4.0549    2.1897 C   0  0  1  0  0  0  0  0  0  0  0  0
   13.7732   -3.6439    3.5471 O   0  0  0  0  0  0  0  0  0  0  0  0
   12.9433   -4.9258    8.8471 H   0  0  0  0  0  0  0  0  0  0  0  0
   14.2140   -6.9556    9.9382 H   0  0  0  0  0  0  0  0  0  0  0  0
   15.5237   -5.7893    9.8493 H   0  0  0  0  0  0  0  0  0  0  0  0
   14.4772   -5.6824   12.0388 H   0  0  0  0  0  0  0  0  0  0  0  0
   14.1709   -4.1734   11.1929 H   0  0  0  0  0  0  0  0  0  0  0  0
   12.1918   -6.4845   11.4442 H   0  0  0  0  0  0  0  0  0  0  0  0
   12.2078   -5.0429   12.4599 H   0  0  0  0  0  0  0  0  0  0  0  0
   10.7971   -5.1616   10.4506 H   0  0  0  0  0  0  0  0  0  0  0  0
   12.9997   -4.1579    6.6709 H   0  0  0  0  0  0  0  0  0  0  0  0
   14.2691   -2.4184    5.5897 H   0  0  0  0  0  0  0  0  0  0  0  0
   15.7310   -3.2359    6.1367 H   0  0  0  0  0  0  0  0  0  0  0  0
   15.7958   -3.6835    3.9330 H   0  0  0  0  0  0  0  0  0  0  0  0
   15.7752   -5.8657    5.0639 H   0  0  0  0  0  0  0  0  0  0  0  0
   14.0411   -5.9773    4.8450 H   0  0  0  0  0  0  0  0  0  0  0  0
   16.1176   -5.8302    2.6322 H   0  0  0  0  0  0  0  0  0  0  0  0
   15.0954   -7.1952    3.0196 H   0  0  0  0  0  0  0  0  0  0  0  0
   14.3592   -5.7749    1.0360 H   0  0  0  0  0  0  0  0  0  0  0  0
   12.4039   -6.0226    3.3247 H   0  0  0  0  0  0  0  0  0  0  0  0
   11.6950   -8.1799    3.8829 H   0  0  0  0  0  0  0  0  0  0  0  0
   12.1291  -10.5726    3.7235 H   0  0  0  0  0  0  0  0  0  0  0  0
   13.3107  -11.5016    1.7109 H   0  0  0  0  0  0  0  0  0  0  0  0
   13.9975  -10.0043   -0.0715 H   0  0  0  0  0  0  0  0  0  0  0  0
   13.5597   -7.5733    0.0908 H   0  0  0  0  0  0  0  0  0  0  0  0
   10.7897   -6.0030    1.4971 H   0  0  0  0  0  0  0  0  0  0  0  0
   10.0110   -4.4302   -0.2099 H   0  0  0  0  0  0  0  0  0  0  0  0
   10.2010   -2.1256   -1.0551 H   0  0  0  0  0  0  0  0  0  0  0  0
   13.8622   -1.6358    1.0734 H   0  0  0  0  0  0  0  0  0  0  0  0
   14.9447   -3.6481    1.8434 H   0  0  0  0  0  0  0  0  0  0  0  0
  1  2  2  0
  2  3  1  0
  2  8  1  0
  3  4  1  0
  3 34  1  0
  4  5  1  0
  4 35  1  0
  4 36  1  0
  5  6  1  0
  5 37  1  0
  5 38  1  0
  6  7  1  0
  6 39  1  0
  6 40  1  0
  7 41  1  0
  8  9  1  0
  8 42  1  0
  9 10  1  0
  9 43  1  0
  9 44  1  0
 10 11  1  0
 10 33  1  0
 10 45  1  6
 11 12  1  0
 11 46  1  0
 11 47  1  0
 12 13  1  0
 12 48  1  0
 12 49  1  0
 13 14  1  0
 13 32  1  0
 13 50  1  6
 14 15  1  0
 14 21  1  0
 14 51  1  1
 15 16  2  0
 15 20  1  0
 16 17  1  0
 16 52  1  0
 17 18  2  0
 17 53  1  0
 18 19  1  0
 18 54  1  0
 19 20  2  0
 19 55  1  0
 20 56  1  0
 21 22  1  0
 21 57  1  0
 22 23  2  0
 22 31  1  0
 23 24  1  0
 23 58  1  0
 24 25  2  0
 24 59  1  0
 25 26  1  0
 25 30  1  0
 26 27  1  0
 26 28  1  0
 26 29  1  0
 30 31  2  0
 30 60  1  0
 31 32  1  0
 32 33  1  0
 32 61  1  6
M  END
>  <r_exp_dg>  (11) 
-10.9219

>  <mol_id>  (11) 
10

>  <source_index>  (11) 
10

>  <paff>  (11) 
8.0072732964568818

>  <source_r_exp_dg>  (11) 
-10.921900000000001

>  <smiles>  (11) 
O=C(NCCCO)NC[C@H]1CC[C@@H]2[C@H](O1)c1cc(C(F)(F)F)ccc1N[C@H]2c1ccccc1

>  <aimnet_interaction_kcal_mol>  (11) 
-74.610512352219487

$$$$
eg5_011
     RDKit          3D

 62 65  0  0  1  0  0  0  0  0999 V2000
   13.2535   -8.4840   12.4571 C   0  0  0  0  0  0  0  0  0  0  0  0
   12.7507   -7.6057   11.3710 N   0  0  0  0  0  0  0  0  0  0  0  0
   13.0651   -6.1571   11.5797 C   0  0  0  0  0  0  0  0  0  0  0  0
   12.7564   -5.2352   10.4104 C   0  0  0  0  0  0  0  0  0  0  0  0
   14.0316   -5.3889    9.0663 S   0  0  0  0  0  0  0  0  0  0  0  0
   15.1103   -4.4396    9.3970 O   0  0  0  0  0  0  0  0  0  0  0  0
   14.3754   -6.8310    9.0050 O   0  0  0  0  0  0  0  0  0  0  0  0
   13.3203   -4.9046    7.6432 N   0  0  0  0  0  0  0  0  0  0  0  0
   13.8936   -3.8535    6.7929 C   0  0  0  0  0  0  0  0  0  0  0  0
   14.3241   -4.2850    5.3849 C   0  0  1  0  0  0  0  0  0  0  0  0
   14.7122   -5.7471    5.2515 C   0  0  0  0  0  0  0  0  0  0  0  0
   15.1154   -6.0639    3.8203 C   0  0  0  0  0  0  0  0  0  0  0  0
   14.0756   -5.5763    2.8286 C   0  0  1  0  0  0  0  0  0  0  0  0
   12.7826   -6.3904    2.8499 C   0  0  2  0  0  0  0  0  0  0  0  0
   12.9375   -7.8302    2.4314 C   0  0  0  0  0  0  0  0  0  0  0  0
   12.4637   -8.8445    3.2505 C   0  0  0  0  0  0  0  0  0  0  0  0
   12.6210  -10.1726    2.8894 C   0  0  0  0  0  0  0  0  0  0  0  0
   13.1908  -10.5079    1.6686 C   0  0  0  0  0  0  0  0  0  0  0  0
   13.5946   -9.4949    0.8146 C   0  0  0  0  0  0  0  0  0  0  0  0
   13.4716   -8.1672    1.1926 C   0  0  0  0  0  0  0  0  0  0  0  0
   11.7996   -5.8031    1.9560 N   0  0  0  0  0  0  0  0  0  0  0  0
   11.9262   -4.5417    1.4694 C   0  0  0  0  0  0  0  0  0  0  0  0
   11.1667   -4.1470    0.3536 C   0  0  0  0  0  0  0  0  0  0  0  0
   11.2861   -2.8786   -0.1525 C   0  0  0  0  0  0  0  0  0  0  0  0
   12.1536   -1.9646    0.4344 C   0  0  0  0  0  0  0  0  0  0  0  0
   12.2563   -0.6166   -0.1746 C   0  0  0  0  0  0  0  0  0  0  0  0
   11.0447   -0.0776   -0.4603 F   0  0  0  0  0  0  0  0  0  0  0  0
   12.9051    0.2742    0.6138 F   0  0  0  0  0  0  0  0  0  0  0  0
   12.9428   -0.6310   -1.3653 F   0  0  0  0  0  0  0  0  0  0  0  0
   12.8690   -2.3292    1.5654 C   0  0  0  0  0  0  0  0  0  0  0  0
   12.8142   -3.6174    2.0594 C   0  0  0  0  0  0  0  0  0  0  0  0
   13.7717   -4.1083    3.0883 C   0  0  1  0  0  0  0  0  0  0  0  0
   13.3052   -3.9363    4.4485 O   0  0  0  0  0  0  0  0  0  0  0  0
   13.0284   -9.5055   12.1813 H   0  0  0  0  0  0  0  0  0  0  0  0
   12.7473   -8.2287   13.3821 H   0  0  0  0  0  0  0  0  0  0  0  0
   14.3290   -8.3706   12.5566 H   0  0  0  0  0  0  0  0  0  0  0  0
   13.1644   -7.9306   10.4958 H   0  0  0  0  0  0  0  0  0  0  0  0
   12.4655   -5.8427   12.4332 H   0  0  0  0  0  0  0  0  0  0  0  0
   14.1190   -6.0849   11.8460 H   0  0  0  0  0  0  0  0  0  0  0  0
   11.7519   -5.3951   10.0282 H   0  0  0  0  0  0  0  0  0  0  0  0
   12.8523   -4.1982   10.7181 H   0  0  0  0  0  0  0  0  0  0  0  0
   12.3478   -5.1412    7.4931 H   0  0  0  0  0  0  0  0  0  0  0  0
   13.1631   -3.0538    6.6951 H   0  0  0  0  0  0  0  0  0  0  0  0
   14.7527   -3.4551    7.3235 H   0  0  0  0  0  0  0  0  0  0  0  0
   15.2159   -3.6775    5.1649 H   0  0  0  0  0  0  0  0  0  0  0  0
   15.5148   -5.9797    5.9545 H   0  0  0  0  0  0  0  0  0  0  0  0
   13.8693   -6.3738    5.5205 H   0  0  0  0  0  0  0  0  0  0  0  0
   16.0724   -5.5850    3.6002 H   0  0  0  0  0  0  0  0  0  0  0  0
   15.2704   -7.1294    3.6867 H   0  0  0  0  0  0  0  0  0  0  0  0
   14.4878   -5.6348    1.8211 H   0  0  0  0  0  0  0  0  0  0  0  0
   12.3969   -6.3598    3.8680 H   0  0  0  0  0  0  0  0  0  0  0  0
   11.9203   -8.6095    4.1509 H   0  0  0  0  0  0  0  0  0  0  0  0
   12.2973  -10.9312    3.5811 H   0  0  0  0  0  0  0  0  0  0  0  0
   13.3197  -11.5385    1.3651 H   0  0  0  0  0  0  0  0  0  0  0  0
   13.9933   -9.7545   -0.1533 H   0  0  0  0  0  0  0  0  0  0  0  0
   13.7599   -7.3829    0.5046 H   0  0  0  0  0  0  0  0  0  0  0  0
   10.8822   -6.2311    1.9721 H   0  0  0  0  0  0  0  0  0  0  0  0
   10.4665   -4.8504   -0.0715 H   0  0  0  0  0  0  0  0  0  0  0  0
   10.6763   -2.5714   -0.9909 H   0  0  0  0  0  0  0  0  0  0  0  0
   13.4464   -1.5842    2.0938 H   0  0  0  0  0  0  0  0  0  0  0  0
   14.7024   -3.5360    2.9781 H   0  0  0  0  0  0  0  0  0  0  0  0
   11.6937   -7.7606   11.3392 H   0  0  0  0  0  0  0  0  0  0  0  0
  1  2  1  0
  1 34  1  0
  1 35  1  0
  1 36  1  0
  2  3  1  0
  2 37  1  0
  2 62  1  0
  3  4  1  0
  3 38  1  0
  3 39  1  0
  4  5  1  0
  4 40  1  0
  4 41  1  0
  5  6  2  0
  5  7  2  0
  5  8  1  0
  8  9  1  0
  8 42  1  0
  9 10  1  0
  9 43  1  0
  9 44  1  0
 10 11  1  0
 10 33  1  0
 10 45  1  6
 11 12  1  0
 11 46  1  0
 11 47  1  0
 12 13  1  0
 12 48  1  0
 12 49  1  0
 13 14  1  0
 13 32  1  0
 13 50  1  6
 14 15  1  0
 14 21  1  0
 14 51  1  1
 15 16  2  0
 15 20  1  0
 16 17  1  0
 16 52  1  0
 17 18  2  0
 17 53  1  0
 18 19  1  0
 18 54  1  0
 19 20  2  0
 19 55  1  0
 20 56  1  0
 21 22  1  0
 21 57  1  0
 22 23  2  0
 22 31  1  0
 23 24  1  0
 23 58  1  0
 24 25  2  0
 24 59  1  0
 25 26  1  0
 25 30  1  0
 26 27  1  0
 26 28  1  0
 26 29  1  0
 30 31  2  0
 30 60  1  0
 31 32  1  0
 32 33  1  0
 32 61  1  1
M  CHG  1   2   1
M  END
>  <r_exp_dg>  (12) 
-11.5248

>  <mol_id>  (12) 
11

>  <source_index>  (12) 
11

>  <paff>  (12) 
8.4492922528398342

>  <source_r_exp_dg>  (12) 
-11.524800000000001

>  <smiles>  (12) 
CNCCS(=O)(=O)NC[C@H]1CC[C@@H]2[C@H](O1)c1cc(C(F)(F)F)ccc1N[C@H]2c1ccccc1

>  <aimnet_interaction_kcal_mol>  (12) 
-220.15054529778021

$$$$
eg5_012
     RDKit          3D

 57 60  0  0  1  0  0  0  0  0999 V2000
   10.8483   -2.6288    6.0643 C   0  0  0  0  0  0  0  0  0  0  0  0
   11.6779   -3.5956    5.2999 N   0  0  0  0  0  0  0  0  0  0  0  0
   13.1445   -3.4782    5.5907 C   0  0  0  0  0  0  0  0  0  0  0  0
   13.9820   -4.0036    4.4306 C   0  0  1  0  0  0  0  0  0  0  0  0
   14.2276   -5.5021    4.5201 C   0  0  0  0  0  0  0  0  0  0  0  0
   14.7531   -6.0494    3.2028 C   0  0  0  0  0  0  0  0  0  0  0  0
   13.8407   -5.6327    2.0569 C   0  0  1  0  0  0  0  0  0  0  0  0
   12.4585   -6.2834    2.1627 C   0  0  2  0  0  0  0  0  0  0  0  0
   12.5362   -7.7714    2.1741 C   0  0  0  0  0  0  0  0  0  0  0  0
   12.0718   -8.5831    3.1533 C   0  0  0  0  0  0  0  0  0  0  0  0
   12.4196   -9.9446    2.9678 C   0  0  0  0  0  0  0  0  0  0  0  0
   13.1092  -10.1685    1.8143 C   0  0  0  0  0  0  0  0  0  0  0  0
   13.3701   -8.6853    0.9447 S   0  0  0  0  0  0  0  0  0  0  0  0
   11.5975   -5.8331    1.0861 N   0  0  0  0  0  0  0  0  0  0  0  0
   11.6561   -4.5114    0.6854 C   0  0  0  0  0  0  0  0  0  0  0  0
   10.6329   -3.9699   -0.0966 C   0  0  0  0  0  0  0  0  0  0  0  0
   10.6845   -2.6640   -0.5265 C   0  0  0  0  0  0  0  0  0  0  0  0
   11.7684   -1.8462   -0.2419 C   0  0  0  0  0  0  0  0  0  0  0  0
   11.8016   -0.4150   -0.7384 C   0  0  0  0  0  0  0  0  0  0  0  0
   10.3782    0.1239   -0.8463 C   0  0  0  0  0  0  0  0  0  0  0  0
   12.4706   -0.4017   -2.1117 C   0  0  0  0  0  0  0  0  0  0  0  0
   12.6161    0.4226    0.2378 C   0  0  0  0  0  0  0  0  0  0  0  0
   12.8018   -2.3950    0.4980 C   0  0  0  0  0  0  0  0  0  0  0  0
   12.7231   -3.6741    1.0193 C   0  0  0  0  0  0  0  0  0  0  0  0
   13.7182   -4.1247    2.0162 C   0  0  1  0  0  0  0  0  0  0  0  0
   13.2636   -3.5897    3.2859 O   0  0  0  0  0  0  0  0  0  0  0  0
    9.8553   -3.0508    6.1182 H   0  0  0  0  0  0  0  0  0  0  0  0
   10.8296   -1.6788    5.5389 H   0  0  0  0  0  0  0  0  0  0  0  0
   11.2454   -2.5313    7.0709 H   0  0  0  0  0  0  0  0  0  0  0  0
   11.2791   -4.5375    5.4915 H   0  0  0  0  0  0  0  0  0  0  0  0
   13.3491   -2.4203    5.7406 H   0  0  0  0  0  0  0  0  0  0  0  0
   13.3480   -4.0064    6.5205 H   0  0  0  0  0  0  0  0  0  0  0  0
   14.9567   -3.4950    4.4356 H   0  0  0  0  0  0  0  0  0  0  0  0
   14.9392   -5.6968    5.3254 H   0  0  0  0  0  0  0  0  0  0  0  0
   13.3038   -6.0084    4.8041 H   0  0  0  0  0  0  0  0  0  0  0  0
   15.7577   -5.6615    3.0196 H   0  0  0  0  0  0  0  0  0  0  0  0
   14.8370   -7.1308    3.2414 H   0  0  0  0  0  0  0  0  0  0  0  0
   14.2747   -5.9398    1.1062 H   0  0  0  0  0  0  0  0  0  0  0  0
   12.0220   -5.9931    3.1252 H   0  0  0  0  0  0  0  0  0  0  0  0
   11.4963   -8.2248    3.9860 H   0  0  0  0  0  0  0  0  0  0  0  0
   12.1676  -10.7111    3.6763 H   0  0  0  0  0  0  0  0  0  0  0  0
   13.4861  -11.0889    1.3901 H   0  0  0  0  0  0  0  0  0  0  0  0
   10.6572   -6.1908    1.2063 H   0  0  0  0  0  0  0  0  0  0  0  0
    9.7714   -4.5795   -0.3256 H   0  0  0  0  0  0  0  0  0  0  0  0
    9.8493   -2.2714   -1.0851 H   0  0  0  0  0  0  0  0  0  0  0  0
   10.3756    1.1998   -0.9939 H   0  0  0  0  0  0  0  0  0  0  0  0
    9.8036   -0.0964    0.0482 H   0  0  0  0  0  0  0  0  0  0  0  0
    9.8654   -0.3142   -1.6999 H   0  0  0  0  0  0  0  0  0  0  0  0
   11.8836   -0.9634   -2.8284 H   0  0  0  0  0  0  0  0  0  0  0  0
   13.4584   -0.8486   -2.0613 H   0  0  0  0  0  0  0  0  0  0  0  0
   12.5849    0.6122   -2.4807 H   0  0  0  0  0  0  0  0  0  0  0  0
   12.5312    1.4876    0.0318 H   0  0  0  0  0  0  0  0  0  0  0  0
   13.6649    0.1653    0.1783 H   0  0  0  0  0  0  0  0  0  0  0  0
   12.2909    0.2272    1.2515 H   0  0  0  0  0  0  0  0  0  0  0  0
   13.6971   -1.8279    0.6996 H   0  0  0  0  0  0  0  0  0  0  0  0
   14.7014   -3.6936    1.8061 H   0  0  0  0  0  0  0  0  0  0  0  0
   11.5647   -3.4173    4.2899 H   0  0  0  0  0  0  0  0  0  0  0  0
  1  2  1  0
  1 27  1  0
  1 28  1  0
  1 29  1  0
  2  3  1  0
  2 30  1  0
  2 57  1  0
  3  4  1  0
  3 31  1  0
  3 32  1  0
  4  5  1  0
  4 26  1  0
  4 33  1  6
  5  6  1  0
  5 34  1  0
  5 35  1  0
  6  7  1  0
  6 36  1  0
  6 37  1  0
  7  8  1  0
  7 25  1  0
  7 38  1  6
  8  9  1  0
  8 14  1  0
  8 39  1  1
  9 10  2  0
  9 13  1  0
 10 11  1  0
 10 40  1  0
 11 12  2  0
 11 41  1  0
 12 13  1  0
 12 42  1  0
 14 15  1  0
 14 43  1  0
 15 16  2  0
 15 24  1  0
 16 17  1  0
 16 44  1  0
 17 18  2  0
 17 45  1  0
 18 19  1  0
 18 23  1  0
 19 20  1  0
 19 21  1  0
 19 22  1  0
 20 46  1  0
 20 47  1  0
 20 48  1  0
 21 49  1  0
 21 50  1  0
 21 51  1  0
 22 52  1  0
 22 53  1  0
 22 54  1  0
 23 24  2  0
 23 55  1  0
 24 25  1  0
 25 26  1  0
 25 56  1  6
M  CHG  1   2   1
M  END
>  <r_exp_dg>  (13) 
-11.3918

>  <mol_id>  (13) 
12

>  <source_index>  (13) 
12

>  <paff>  (13) 
8.3517902407827957

>  <source_r_exp_dg>  (13) 
-11.3918

>  <smiles>  (13) 
CNC[C@H]1CC[C@@H]2[C@H](O1)c1cc(C(C)(C)C)ccc1N[C@H]2c1cccs1

>  <aimnet_interaction_kcal_mol>  (13) 
-193.80996349709139

$$$$
eg5_013
     RDKit          3D

 60 63  0  0  1  0  0  0  0  0999 V2000
   10.8192   -2.6251    6.0924 C   0  0  0  0  0  0  0  0  0  0  0  0
   11.6561   -3.5893    5.3336 N   0  0  0  0  0  0  0  0  0  0  0  0
   13.1186   -3.4739    5.6388 C   0  0  0  0  0  0  0  0  0  0  0  0
   13.9649   -3.9827    4.4773 C   0  0  1  0  0  0  0  0  0  0  0  0
   14.2200   -5.4798    4.5478 C   0  0  0  0  0  0  0  0  0  0  0  0
   14.7742   -5.9938    3.2299 C   0  0  0  0  0  0  0  0  0  0  0  0
   13.8749   -5.5689    2.0749 C   0  0  1  0  0  0  0  0  0  0  0  0
   12.5163   -6.2665    2.1411 C   0  0  2  0  0  0  0  0  0  0  0  0
   12.6664   -7.7552    1.9965 C   0  0  0  0  0  0  0  0  0  0  0  0
   12.2367   -8.5994    3.0059 C   0  0  0  0  0  0  0  0  0  0  0  0
   12.4857   -9.9636    2.9256 C   0  0  0  0  0  0  0  0  0  0  0  0
   13.1480  -10.4890    1.8238 C   0  0  0  0  0  0  0  0  0  0  0  0
   13.5401   -9.6479    0.7964 C   0  0  0  0  0  0  0  0  0  0  0  0
   13.2779   -8.2926    0.8704 C   0  0  0  0  0  0  0  0  0  0  0  0
   11.6259   -5.7752    1.1068 N   0  0  0  0  0  0  0  0  0  0  0  0
   11.6840   -4.4587    0.7046 C   0  0  0  0  0  0  0  0  0  0  0  0
   10.6668   -3.9294   -0.0945 C   0  0  0  0  0  0  0  0  0  0  0  0
   10.7182   -2.6280   -0.5347 C   0  0  0  0  0  0  0  0  0  0  0  0
   11.7935   -1.8029   -0.2372 C   0  0  0  0  0  0  0  0  0  0  0  0
   11.8215   -0.3767   -0.7451 C   0  0  0  0  0  0  0  0  0  0  0  0
   12.4924   -0.3749   -2.1177 C   0  0  0  0  0  0  0  0  0  0  0  0
   12.6282    0.4727    0.2260 C   0  0  0  0  0  0  0  0  0  0  0  0
   10.3941    0.1515   -0.8558 C   0  0  0  0  0  0  0  0  0  0  0  0
   12.8185   -2.3379    0.5246 C   0  0  0  0  0  0  0  0  0  0  0  0
   12.7426   -3.6144    1.0524 C   0  0  0  0  0  0  0  0  0  0  0  0
   13.7280   -4.0621    2.0601 C   0  0  1  0  0  0  0  0  0  0  0  0
   13.2479   -3.5622    3.3349 O   0  0  0  0  0  0  0  0  0  0  0  0
    9.8308   -3.0572    6.1477 H   0  0  0  0  0  0  0  0  0  0  0  0
   10.7911   -1.6773    5.5636 H   0  0  0  0  0  0  0  0  0  0  0  0
   11.2130   -2.5190    7.0995 H   0  0  0  0  0  0  0  0  0  0  0  0
   11.2544   -4.5309    5.5225 H   0  0  0  0  0  0  0  0  0  0  0  0
   13.3229   -2.4185    5.8051 H   0  0  0  0  0  0  0  0  0  0  0  0
   13.3150   -4.0157    6.5624 H   0  0  0  0  0  0  0  0  0  0  0  0
   14.9370   -3.4689    4.4915 H   0  0  0  0  0  0  0  0  0  0  0  0
   14.9180   -5.6844    5.3621 H   0  0  0  0  0  0  0  0  0  0  0  0
   13.2937   -5.9986    4.8008 H   0  0  0  0  0  0  0  0  0  0  0  0
   15.7799   -5.5969    3.0744 H   0  0  0  0  0  0  0  0  0  0  0  0
   14.8673   -7.0749    3.2514 H   0  0  0  0  0  0  0  0  0  0  0  0
   14.3439   -5.8430    1.1318 H   0  0  0  0  0  0  0  0  0  0  0  0
   12.0772   -6.0612    3.1202 H   0  0  0  0  0  0  0  0  0  0  0  0
   11.7013   -8.2107    3.8598 H   0  0  0  0  0  0  0  0  0  0  0  0
   12.1557  -10.5993    3.7316 H   0  0  0  0  0  0  0  0  0  0  0  0
   13.3565  -11.5467    1.7360 H   0  0  0  0  0  0  0  0  0  0  0  0
   14.0297  -10.0719   -0.0677 H   0  0  0  0  0  0  0  0  0  0  0  0
   13.5217   -7.6522    0.0349 H   0  0  0  0  0  0  0  0  0  0  0  0
   10.6872   -6.1383    1.2160 H   0  0  0  0  0  0  0  0  0  0  0  0
    9.8107   -4.5451   -0.3303 H   0  0  0  0  0  0  0  0  0  0  0  0
    9.8911   -2.2449   -1.1113 H   0  0  0  0  0  0  0  0  0  0  0  0
   12.5992    0.6344   -2.5001 H   0  0  0  0  0  0  0  0  0  0  0  0
   11.9107   -0.9508   -2.8275 H   0  0  0  0  0  0  0  0  0  0  0  0
   13.4836   -0.8136   -2.0604 H   0  0  0  0  0  0  0  0  0  0  0  0
   13.6767    0.2143    0.1769 H   0  0  0  0  0  0  0  0  0  0  0  0
   12.2961    0.2871    1.2390 H   0  0  0  0  0  0  0  0  0  0  0  0
   12.5449    1.5356    0.0090 H   0  0  0  0  0  0  0  0  0  0  0  0
   10.3817    1.2271   -1.0023 H   0  0  0  0  0  0  0  0  0  0  0  0
    9.8214   -0.0747    0.0386 H   0  0  0  0  0  0  0  0  0  0  0  0
    9.8850   -0.2914   -1.7090 H   0  0  0  0  0  0  0  0  0  0  0  0
   13.7057   -1.7618    0.7352 H   0  0  0  0  0  0  0  0  0  0  0  0
   14.7063   -3.6070    1.8754 H   0  0  0  0  0  0  0  0  0  0  0  0
   11.5514   -3.4090    4.3232 H   0  0  0  0  0  0  0  0  0  0  0  0
  1  2  1  0
  1 28  1  0
  1 29  1  0
  1 30  1  0
  2  3  1  0
  2 31  1  0
  2 60  1  0
  3  4  1  0
  3 32  1  0
  3 33  1  0
  4  5  1  0
  4 27  1  0
  4 34  1  6
  5  6  1  0
  5 35  1  0
  5 36  1  0
  6  7  1  0
  6 37  1  0
  6 38  1  0
  7  8  1  0
  7 26  1  0
  7 39  1  6
  8  9  1  0
  8 15  1  0
  8 40  1  1
  9 10  2  0
  9 14  1  0
 10 11  1  0
 10 41  1  0
 11 12  2  0
 11 42  1  0
 12 13  1  0
 12 43  1  0
 13 14  2  0
 13 44  1  0
 14 45  1  0
 15 16  1  0
 15 46  1  0
 16 17  2  0
 16 25  1  0
 17 18  1  0
 17 47  1  0
 18 19  2  0
 18 48  1  0
 19 20  1  0
 19 24  1  0
 20 21  1  0
 20 22  1  0
 20 23  1  0
 21 49  1  0
 21 50  1  0
 21 51  1  0
 22 52  1  0
 22 53  1  0
 22 54  1  0
 23 55  1  0
 23 56  1  0
 23 57  1  0
 24 25  2  0
 24 58  1  0
 25 26  1  0
 26 27  1  0
 26 59  1  6
M  CHG  1   2   1
M  END
>  <r_exp_dg>  (14) 
-11.5248

>  <mol_id>  (14) 
13

>  <source_index>  (14) 
13

>  <paff>  (14) 
8.4492922528398342

>  <source_r_exp_dg>  (14) 
-11.524800000000001

>  <smiles>  (14) 
CNC[C@H]1CC[C@@H]2[C@H](O1)c1cc(C(C)(C)C)ccc1N[C@H]2c1ccccc1

>  <aimnet_interaction_kcal_mol>  (14) 
-194.87675879402696

$$$$
eg5_014
     RDKit          3D

 52 55  0  0  1  0  0  0  0  0999 V2000
   10.8386   -2.6299    6.0913 C   0  0  0  0  0  0  0  0  0  0  0  0
   11.6687   -3.6260    5.3668 N   0  0  0  0  0  0  0  0  0  0  0  0
   13.1260   -3.5519    5.7080 C   0  0  0  0  0  0  0  0  0  0  0  0
   13.9878   -4.0406    4.5487 C   0  0  1  0  0  0  0  0  0  0  0  0
   14.2109   -5.5441    4.5706 C   0  0  0  0  0  0  0  0  0  0  0  0
   14.7830   -6.0229    3.2469 C   0  0  0  0  0  0  0  0  0  0  0  0
   13.9145   -5.5425    2.0898 C   0  0  1  0  0  0  0  0  0  0  0  0
   12.5349   -6.2008    2.1101 C   0  0  2  0  0  0  0  0  0  0  0  0
   12.6437   -7.6928    1.9702 C   0  0  0  0  0  0  0  0  0  0  0  0
   12.1809   -8.5218    2.9842 C   0  0  0  0  0  0  0  0  0  0  0  0
   12.4272   -9.8843    2.9607 C   0  0  0  0  0  0  0  0  0  0  0  0
   13.1133  -10.4603    1.8868 C   0  0  0  0  0  0  0  0  0  0  0  0
   13.3507  -11.7926    1.9271 O   0  0  0  0  0  0  0  0  0  0  0  0
   13.5301   -9.6387    0.8426 C   0  0  0  0  0  0  0  0  0  0  0  0
   13.2790   -8.2777    0.8808 C   0  0  0  0  0  0  0  0  0  0  0  0
   11.6922   -5.6542    1.0582 N   0  0  0  0  0  0  0  0  0  0  0  0
   11.7738   -4.3271    0.7125 C   0  0  0  0  0  0  0  0  0  0  0  0
   10.7698   -3.7465   -0.0769 C   0  0  0  0  0  0  0  0  0  0  0  0
   10.8571   -2.4317   -0.4695 C   0  0  0  0  0  0  0  0  0  0  0  0
   11.9829   -1.6828   -0.1571 C   0  0  0  0  0  0  0  0  0  0  0  0
   12.1161   -0.3163   -0.7173 C   0  0  0  0  0  0  0  0  0  0  0  0
   10.9212    0.2924   -0.8887 F   0  0  0  0  0  0  0  0  0  0  0  0
   12.8623    0.5050    0.0615 F   0  0  0  0  0  0  0  0  0  0  0  0
   12.7224   -0.3235   -1.9452 F   0  0  0  0  0  0  0  0  0  0  0  0
   12.9787   -2.2374    0.6268 C   0  0  0  0  0  0  0  0  0  0  0  0
   12.8506   -3.5211    1.1151 C   0  0  0  0  0  0  0  0  0  0  0  0
   13.8038   -4.0316    2.1244 C   0  0  1  0  0  0  0  0  0  0  0  0
   13.3058   -3.5661    3.4038 O   0  0  0  0  0  0  0  0  0  0  0  0
    9.8351   -3.0282    6.1120 H   0  0  0  0  0  0  0  0  0  0  0  0
   10.8587   -1.6845    5.5576 H   0  0  0  0  0  0  0  0  0  0  0  0
   11.1982   -2.5326    7.1119 H   0  0  0  0  0  0  0  0  0  0  0  0
   11.2344   -4.5551    5.5577 H   0  0  0  0  0  0  0  0  0  0  0  0
   13.3508   -2.5077    5.9136 H   0  0  0  0  0  0  0  0  0  0  0  0
   13.2890   -4.1296    6.6167 H   0  0  0  0  0  0  0  0  0  0  0  0
   14.9688   -3.5475    4.6008 H   0  0  0  0  0  0  0  0  0  0  0  0
   14.8881   -5.7894    5.3911 H   0  0  0  0  0  0  0  0  0  0  0  0
   13.2705   -6.0534    4.7865 H   0  0  0  0  0  0  0  0  0  0  0  0
   15.7976   -5.6379    3.1235 H   0  0  0  0  0  0  0  0  0  0  0  0
   14.8588   -7.1056    3.2336 H   0  0  0  0  0  0  0  0  0  0  0  0
   14.3935   -5.7990    1.1466 H   0  0  0  0  0  0  0  0  0  0  0  0
   12.0718   -5.9874    3.0759 H   0  0  0  0  0  0  0  0  0  0  0  0
   11.6203   -8.1094    3.8114 H   0  0  0  0  0  0  0  0  0  0  0  0
   12.0920  -10.5080    3.7763 H   0  0  0  0  0  0  0  0  0  0  0  0
   13.7677  -12.1874    1.1229 H   0  0  0  0  0  0  0  0  0  0  0  0
   14.0374  -10.0857   -0.0011 H   0  0  0  0  0  0  0  0  0  0  0  0
   13.5647   -7.6649    0.0375 H   0  0  0  0  0  0  0  0  0  0  0  0
   10.7524   -6.0268    1.1028 H   0  0  0  0  0  0  0  0  0  0  0  0
    9.9069   -4.3371   -0.3513 H   0  0  0  0  0  0  0  0  0  0  0  0
   10.0457   -1.9683   -1.0085 H   0  0  0  0  0  0  0  0  0  0  0  0
   13.8648   -1.6741    0.8679 H   0  0  0  0  0  0  0  0  0  0  0  0
   14.7975   -3.5957    1.9766 H   0  0  0  0  0  0  0  0  0  0  0  0
   11.5920   -3.4518    4.3538 H   0  0  0  0  0  0  0  0  0  0  0  0
  1  2  1  0
  1 29  1  0
  1 30  1  0
  1 31  1  0
  2  3  1  0
  2 32  1  0
  2 52  1  0
  3  4  1  0
  3 33  1  0
  3 34  1  0
  4  5  1  0
  4 28  1  0
  4 35  1  1
  5  6  1  0
  5 36  1  0
  5 37  1  0
  6  7  1  0
  6 38  1  0
  6 39  1  0
  7  8  1  0
  7 27  1  0
  7 40  1  6
  8  9  1  0
  8 16  1  0
  8 41  1  1
  9 10  2  0
  9 15  1  0
 10 11  1  0
 10 42  1  0
 11 12  2  0
 11 43  1  0
 12 13  1  0
 12 14  1  0
 13 44  1  0
 14 15  2  0
 14 45  1  0
 15 46  1  0
 16 17  1  0
 16 47  1  0
 17 18  2  0
 17 26  1  0
 18 19  1  0
 18 48  1  0
 19 20  2  0
 19 49  1  0
 20 21  1  0
 20 25  1  0
 21 22  1  0
 21 23  1  0
 21 24  1  0
 25 26  2  0
 25 50  1  0
 26 27  1  0
 27 28  1  0
 27 51  1  6
M  CHG  1   2   1
M  END
>  <r_exp_dg>  (15) 
-11.5248

>  <mol_id>  (15) 
14

>  <source_index>  (15) 
14

>  <paff>  (15) 
8.4492922528398342

>  <source_r_exp_dg>  (15) 
-11.524800000000001

>  <smiles>  (15) 
CNC[C@H]1CC[C@@H]2[C@H](O1)c1cc(C(F)(F)F)ccc1N[C@H]2c1ccc(O)cc1

>  <aimnet_interaction_kcal_mol>  (15) 
-204.56749512678289

$$$$
eg5_015
     RDKit          3D

 62 65  0  0  1  0  0  0  0  0999 V2000
   14.5819   -8.0179   12.3933 C   0  0  0  0  0  0  0  0  0  0  0  0
   13.8824   -6.8025   11.8743 N   0  0  0  0  0  0  0  0  0  0  0  0
   12.3936   -6.9608   12.0309 C   0  0  0  0  0  0  0  0  0  0  0  0
   14.3228   -6.5598   10.4587 C   0  0  0  0  0  0  0  0  0  0  0  0
   13.7197   -5.3312    9.8062 C   0  0  0  0  0  0  0  0  0  0  0  0
   14.5085   -5.2159    8.1331 S   0  0  0  0  0  0  0  0  0  0  0  0
   15.7287   -4.4085    8.3005 O   0  0  0  0  0  0  0  0  0  0  0  0
   14.6326   -6.6154    7.6759 O   0  0  0  0  0  0  0  0  0  0  0  0
   13.4291   -4.3299    7.2221 N   0  0  0  0  0  0  0  0  0  0  0  0
   13.9637   -3.4359    6.1798 C   0  0  0  0  0  0  0  0  0  0  0  0
   14.4148   -4.0368    4.8321 C   0  0  1  0  0  0  0  0  0  0  0  0
   14.5938   -5.5433    4.7772 C   0  0  0  0  0  0  0  0  0  0  0  0
   15.0000   -5.9822    3.3814 C   0  0  0  0  0  0  0  0  0  0  0  0
   14.0455   -5.4356    2.3320 C   0  0  1  0  0  0  0  0  0  0  0  0
   12.6722   -6.1047    2.3608 C   0  0  2  0  0  0  0  0  0  0  0  0
   12.7441   -7.5936    2.1407 C   0  0  0  0  0  0  0  0  0  0  0  0
   12.2257   -8.4703    3.0828 C   0  0  0  0  0  0  0  0  0  0  0  0
   12.4408   -9.8378    2.9628 C   0  0  0  0  0  0  0  0  0  0  0  0
   13.1081  -10.3441    1.8559 C   0  0  0  0  0  0  0  0  0  0  0  0
   13.5492   -9.4761    0.8710 C   0  0  0  0  0  0  0  0  0  0  0  0
   13.3572   -8.1112    1.0043 C   0  0  0  0  0  0  0  0  0  0  0  0
   11.8268   -5.5178    1.3302 N   0  0  0  0  0  0  0  0  0  0  0  0
   11.9503   -4.1905    1.0132 C   0  0  0  0  0  0  0  0  0  0  0  0
   11.0518   -3.5971    0.1162 C   0  0  0  0  0  0  0  0  0  0  0  0
   10.0478   -4.3817   -0.3698 F   0  0  0  0  0  0  0  0  0  0  0  0
   11.1418   -2.2908   -0.2925 C   0  0  0  0  0  0  0  0  0  0  0  0
   12.2155   -1.5456    0.1692 C   0  0  0  0  0  0  0  0  0  0  0  0
   12.4352    0.0925   -0.4299 Cl  0  0  0  0  0  0  0  0  0  0  0  0
   13.1197   -2.0735    1.0651 C   0  0  0  0  0  0  0  0  0  0  0  0
   12.9661   -3.3710    1.5271 C   0  0  0  0  0  0  0  0  0  0  0  0
   13.9207   -3.9320    2.5165 C   0  0  1  0  0  0  0  0  0  0  0  0
   13.4903   -3.5982    3.8490 O   0  0  0  0  0  0  0  0  0  0  0  0
   14.2414   -8.2192   13.4035 H   0  0  0  0  0  0  0  0  0  0  0  0
   15.6520   -7.8404   12.3878 H   0  0  0  0  0  0  0  0  0  0  0  0
   14.3416   -8.8560   11.7456 H   0  0  0  0  0  0  0  0  0  0  0  0
   12.0564   -7.8361   11.4945 H   0  0  0  0  0  0  0  0  0  0  0  0
   11.8585   -6.0943   11.6605 H   0  0  0  0  0  0  0  0  0  0  0  0
   12.1737   -7.0894   13.0848 H   0  0  0  0  0  0  0  0  0  0  0  0
   15.4086   -6.4858   10.4616 H   0  0  0  0  0  0  0  0  0  0  0  0
   14.0607   -7.4557    9.9121 H   0  0  0  0  0  0  0  0  0  0  0  0
   12.6466   -5.4055    9.6697 H   0  0  0  0  0  0  0  0  0  0  0  0
   13.9709   -4.4007   10.3103 H   0  0  0  0  0  0  0  0  0  0  0  0
   12.5664   -4.8113    6.9853 H   0  0  0  0  0  0  0  0  0  0  0  0
   13.1771   -2.7180    5.9698 H   0  0  0  0  0  0  0  0  0  0  0  0
   14.7847   -2.9005    6.6438 H   0  0  0  0  0  0  0  0  0  0  0  0
   15.3952   -3.5805    4.6238 H   0  0  0  0  0  0  0  0  0  0  0  0
   15.3398   -5.8448    5.5049 H   0  0  0  0  0  0  0  0  0  0  0  0
   13.6627   -6.0357    5.0493 H   0  0  0  0  0  0  0  0  0  0  0  0
   16.0076   -5.6178    3.1686 H   0  0  0  0  0  0  0  0  0  0  0  0
   15.0460   -7.0653    3.3137 H   0  0  0  0  0  0  0  0  0  0  0  0
   14.4687   -5.5949    1.3404 H   0  0  0  0  0  0  0  0  0  0  0  0
   12.2316   -5.9237    3.3414 H   0  0  0  0  0  0  0  0  0  0  0  0
   11.6407   -8.0992    3.9111 H   0  0  0  0  0  0  0  0  0  0  0  0
   12.0841  -10.4946    3.7410 H   0  0  0  0  0  0  0  0  0  0  0  0
   13.2819  -11.4045    1.7335 H   0  0  0  0  0  0  0  0  0  0  0  0
   14.0312   -9.8859   -0.0031 H   0  0  0  0  0  0  0  0  0  0  0  0
   13.6579   -7.4429    0.2081 H   0  0  0  0  0  0  0  0  0  0  0  0
   10.8858   -5.8869    1.3073 H   0  0  0  0  0  0  0  0  0  0  0  0
   10.4038   -1.8585   -0.9497 H   0  0  0  0  0  0  0  0  0  0  0  0
   13.9686   -1.4874    1.3707 H   0  0  0  0  0  0  0  0  0  0  0  0
   14.9078   -3.4811    2.3446 H   0  0  0  0  0  0  0  0  0  0  0  0
   14.1751   -6.0066   12.4366 H   0  0  0  0  0  0  0  0  0  0  0  0
  1  2  1  0
  1 33  1  0
  1 34  1  0
  1 35  1  0
  2  3  1  0
  2  4  1  0
  2 62  1  0
  3 36  1  0
  3 37  1  0
  3 38  1  0
  4  5  1  0
  4 39  1  0
  4 40  1  0
  5  6  1  0
  5 41  1  0
  5 42  1  0
  6  7  2  0
  6  8  2  0
  6  9  1  0
  9 10  1  0
  9 43  1  0
 10 11  1  0
 10 44  1  0
 10 45  1  0
 11 12  1  0
 11 32  1  0
 11 46  1  6
 12 13  1  0
 12 47  1  0
 12 48  1  0
 13 14  1  0
 13 49  1  0
 13 50  1  0
 14 15  1  0
 14 31  1  0
 14 51  1  6
 15 16  1  0
 15 22  1  0
 15 52  1  1
 16 17  2  0
 16 21  1  0
 17 18  1  0
 17 53  1  0
 18 19  2  0
 18 54  1  0
 19 20  1  0
 19 55  1  0
 20 21  2  0
 20 56  1  0
 21 57  1  0
 22 23  1  0
 22 58  1  0
 23 24  2  0
 23 30  1  0
 24 25  1  0
 24 26  1  0
 26 27  2  0
 26 59  1  0
 27 28  1  0
 27 29  1  0
 29 30  2  0
 29 60  1  0
 30 31  1  0
 31 32  1  0
 31 61  1  6
M  CHG  1   2   1
M  END
>  <r_exp_dg>  (16) 
-11.938

>  <mol_id>  (16) 
15

>  <source_index>  (16) 
15

>  <paff>  (16) 
8.7521635542167591

>  <source_r_exp_dg>  (16) 
-11.938000000000001

>  <smiles>  (16) 
CN(C)CCS(=O)(=O)NC[C@H]1CC[C@@H]2[C@H](O1)c1cc(Cl)cc(F)c1N[C@H]2c1ccccc1

>  <aimnet_interaction_kcal_mol>  (16) 
-197.98111409482826

$$$$
eg5_016
     RDKit          3D

 66 69  0  0  1  0  0  0  0  0999 V2000
   15.1138   -8.2089   11.8841 C   0  0  0  0  0  0  0  0  0  0  0  0
   13.7120   -8.0393   11.4148 N   0  0  0  0  0  0  0  0  0  0  0  0
   12.7438   -8.6426   12.3800 C   0  0  0  0  0  0  0  0  0  0  0  0
   13.3665   -6.6043   11.1242 C   0  0  0  0  0  0  0  0  0  0  0  0
   14.2223   -6.0007   10.0105 C   0  0  0  0  0  0  0  0  0  0  0  0
   13.4481   -5.2484    9.0486 N   0  0  0  0  0  0  0  0  0  0  0  0
   14.1222   -4.7208    7.9637 C   0  0  0  0  0  0  0  0  0  0  0  0
   15.3508   -4.7968    7.8991 O   0  0  0  0  0  0  0  0  0  0  0  0
   13.3487   -4.1305    7.0104 N   0  0  0  0  0  0  0  0  0  0  0  0
   13.9413   -3.2876    5.9882 C   0  0  0  0  0  0  0  0  0  0  0  0
   14.3679   -3.9703    4.6823 C   0  0  1  0  0  0  0  0  0  0  0  0
   14.5300   -5.4778    4.7359 C   0  0  0  0  0  0  0  0  0  0  0  0
   14.9349   -6.0014    3.3654 C   0  0  0  0  0  0  0  0  0  0  0  0
   13.9818   -5.5114    2.2795 C   0  0  1  0  0  0  0  0  0  0  0  0
   12.6200   -6.1916    2.3517 C   0  0  2  0  0  0  0  0  0  0  0  0
   12.7119   -7.6771    2.1228 C   0  0  0  0  0  0  0  0  0  0  0  0
   13.3159   -8.1803    0.9756 C   0  0  0  0  0  0  0  0  0  0  0  0
   13.5390   -9.5396    0.8392 C   0  0  0  0  0  0  0  0  0  0  0  0
   13.1227  -10.4181    1.8251 C   0  0  0  0  0  0  0  0  0  0  0  0
   12.4565   -9.9267    2.9397 C   0  0  0  0  0  0  0  0  0  0  0  0
   12.2237   -8.5640    3.0701 C   0  0  0  0  0  0  0  0  0  0  0  0
   11.7098   -5.6292    1.3666 N   0  0  0  0  0  0  0  0  0  0  0  0
   11.8179   -4.3392    0.9324 C   0  0  0  0  0  0  0  0  0  0  0  0
   10.8715   -3.8211    0.0294 C   0  0  0  0  0  0  0  0  0  0  0  0
   10.9895   -2.5360   -0.4405 C   0  0  0  0  0  0  0  0  0  0  0  0
   12.0615   -1.7412   -0.0584 C   0  0  0  0  0  0  0  0  0  0  0  0
   12.1955   -0.3900   -0.6470 C   0  0  0  0  0  0  0  0  0  0  0  0
   12.8328   -0.4188   -1.8655 F   0  0  0  0  0  0  0  0  0  0  0  0
   10.9997    0.2073   -0.8665 F   0  0  0  0  0  0  0  0  0  0  0  0
   12.9147    0.4653    0.1210 F   0  0  0  0  0  0  0  0  0  0  0  0
   13.0000   -2.2405    0.8286 C   0  0  0  0  0  0  0  0  0  0  0  0
   12.8672   -3.5043    1.3667 C   0  0  0  0  0  0  0  0  0  0  0  0
   13.8364   -4.0020    2.3715 C   0  0  1  0  0  0  0  0  0  0  0  0
   13.4189   -3.6019    3.6880 O   0  0  0  0  0  0  0  0  0  0  0  0
   15.2071   -7.8083   12.8898 H   0  0  0  0  0  0  0  0  0  0  0  0
   15.7929   -7.6940   11.2142 H   0  0  0  0  0  0  0  0  0  0  0  0
   15.3485   -9.2670   11.8747 H   0  0  0  0  0  0  0  0  0  0  0  0
   12.8825   -8.1731   13.3519 H   0  0  0  0  0  0  0  0  0  0  0  0
   12.9655   -9.7007   12.4488 H   0  0  0  0  0  0  0  0  0  0  0  0
   11.7157   -8.4836   12.0235 H   0  0  0  0  0  0  0  0  0  0  0  0
   12.3088   -6.5956   10.8777 H   0  0  0  0  0  0  0  0  0  0  0  0
   13.4897   -6.0630   12.0613 H   0  0  0  0  0  0  0  0  0  0  0  0
   15.0183   -5.3784   10.4287 H   0  0  0  0  0  0  0  0  0  0  0  0
   14.7301   -6.7889    9.4515 H   0  0  0  0  0  0  0  0  0  0  0  0
   12.5496   -4.8905    9.3280 H   0  0  0  0  0  0  0  0  0  0  0  0
   12.3803   -4.3847    6.8966 H   0  0  0  0  0  0  0  0  0  0  0  0
   13.2217   -2.5139    5.7363 H   0  0  0  0  0  0  0  0  0  0  0  0
   14.8063   -2.8108    6.4380 H   0  0  0  0  0  0  0  0  0  0  0  0
   15.3475   -3.5428    4.4099 H   0  0  0  0  0  0  0  0  0  0  0  0
   15.2644   -5.7353    5.4950 H   0  0  0  0  0  0  0  0  0  0  0  0
   13.5877   -5.9338    5.0365 H   0  0  0  0  0  0  0  0  0  0  0  0
   15.9444   -5.6539    3.1330 H   0  0  0  0  0  0  0  0  0  0  0  0
   14.9749   -7.0878    3.3596 H   0  0  0  0  0  0  0  0  0  0  0  0
   14.4082   -5.7248    1.2997 H   0  0  0  0  0  0  0  0  0  0  0  0
   12.2111   -6.0215    3.3468 H   0  0  0  0  0  0  0  0  0  0  0  0
   13.5876   -7.5073    0.1731 H   0  0  0  0  0  0  0  0  0  0  0  0
   14.0229   -9.9372   -0.0399 H   0  0  0  0  0  0  0  0  0  0  0  0
   13.3122  -11.4750    1.6960 H   0  0  0  0  0  0  0  0  0  0  0  0
   12.1102  -10.5904    3.7163 H   0  0  0  0  0  0  0  0  0  0  0  0
   11.6521   -8.2040    3.9124 H   0  0  0  0  0  0  0  0  0  0  0  0
   10.7776   -6.0157    1.4141 H   0  0  0  0  0  0  0  0  0  0  0  0
   10.0205   -4.4279   -0.2510 H   0  0  0  0  0  0  0  0  0  0  0  0
   10.2350   -2.1262   -1.0968 H   0  0  0  0  0  0  0  0  0  0  0  0
   13.8572   -1.6442    1.0972 H   0  0  0  0  0  0  0  0  0  0  0  0
   14.8173   -3.5537    2.1609 H   0  0  0  0  0  0  0  0  0  0  0  0
   13.6526   -8.6293   10.5540 H   0  0  0  0  0  0  0  0  0  0  0  0
  1  2  1  0
  1 35  1  0
  1 36  1  0
  1 37  1  0
  2  3  1  0
  2  4  1  0
  2 66  1  0
  3 38  1  0
  3 39  1  0
  3 40  1  0
  4  5  1  0
  4 41  1  0
  4 42  1  0
  5  6  1  0
  5 43  1  0
  5 44  1  0
  6  7  1  0
  6 45  1  0
  7  8  2  0
  7  9  1  0
  9 10  1  0
  9 46  1  0
 10 11  1  0
 10 47  1  0
 10 48  1  0
 11 12  1  0
 11 34  1  0
 11 49  1  6
 12 13  1  0
 12 50  1  0
 12 51  1  0
 13 14  1  0
 13 52  1  0
 13 53  1  0
 14 15  1  0
 14 33  1  0
 14 54  1  6
 15 16  1  0
 15 22  1  0
 15 55  1  1
 16 17  2  0
 16 21  1  0
 17 18  1  0
 17 56  1  0
 18 19  2  0
 18 57  1  0
 19 20  1  0
 19 58  1  0
 20 21  2  0
 20 59  1  0
 21 60  1  0
 22 23  1  0
 22 61  1  0
 23 24  2  0
 23 32  1  0
 24 25  1  0
 24 62  1  0
 25 26  2  0
 25 63  1  0
 26 27  1  0
 26 31  1  0
 27 28  1  0
 27 29  1  0
 27 30  1  0
 31 32  2  0
 31 64  1  0
 32 33  1  0
 33 34  1  0
 33 65  1  6
M  CHG  1   2   1
M  END
>  <r_exp_dg>  (17) 
-11.1117

>  <mol_id>  (17) 
16

>  <source_index>  (17) 
16

>  <paff>  (17) 
8.1464216506376292

>  <source_r_exp_dg>  (17) 
-11.111700000000001

>  <smiles>  (17) 
CN(C)CCNC(=O)NC[C@H]1CC[C@@H]2[C@H](O1)c1cc(C(F)(F)F)ccc1N[C@H]2c1ccccc1

>  <aimnet_interaction_kcal_mol>  (17) 
-216.7085253767396

$$$$
eg5_017
     RDKit          3D

 55 59  0  0  1  0  0  0  0  0999 V2000
   10.8232   -2.6223    6.0876 C   0  0  0  0  0  0  0  0  0  0  0  0
   11.6509   -3.5839    5.3154 N   0  0  0  0  0  0  0  0  0  0  0  0
   13.1167   -3.4771    5.6093 C   0  0  0  0  0  0  0  0  0  0  0  0
   13.9502   -3.9846    4.4377 C   0  0  1  0  0  0  0  0  0  0  0  0
   14.2090   -5.4813    4.5035 C   0  0  0  0  0  0  0  0  0  0  0  0
   14.7478   -5.9894    3.1769 C   0  0  0  0  0  0  0  0  0  0  0  0
   13.8284   -5.5707    2.0352 C   0  0  1  0  0  0  0  0  0  0  0  0
   12.4753   -6.2758    2.1236 C   0  0  2  0  0  0  0  0  0  0  0  0
   12.6361   -7.7632    1.9884 C   0  0  0  0  0  0  0  0  0  0  0  0
   13.2527   -8.3021    0.8661 C   0  0  0  0  0  0  0  0  0  0  0  0
   13.5318   -9.6543    0.8024 C   0  0  0  0  0  0  0  0  0  0  0  0
   13.1489  -10.4919    1.8360 C   0  0  0  0  0  0  0  0  0  0  0  0
   12.4805   -9.9661    2.9340 C   0  0  0  0  0  0  0  0  0  0  0  0
   12.2168   -8.6043    3.0050 C   0  0  0  0  0  0  0  0  0  0  0  0
   11.5670   -5.7983    1.0970 N   0  0  0  0  0  0  0  0  0  0  0  0
   11.5947   -4.4750    0.7118 C   0  0  0  0  0  0  0  0  0  0  0  0
   10.5405   -3.9466   -0.0413 C   0  0  0  0  0  0  0  0  0  0  0  0
   10.5484   -2.6283   -0.4323 C   0  0  0  0  0  0  0  0  0  0  0  0
   11.6374   -1.8068   -0.1744 C   0  0  0  0  0  0  0  0  0  0  0  0
   11.6626   -0.4366   -0.7225 C   0  0  0  0  0  0  0  0  0  0  0  0
   12.6218    0.5965   -0.2379 C   0  0  0  0  0  0  0  0  0  0  0  0
   12.8334   -0.0433   -1.5602 C   0  0  0  0  0  0  0  0  0  0  0  0
   12.7041   -2.3417    0.5284 C   0  0  0  0  0  0  0  0  0  0  0  0
   12.6543   -3.6233    1.0409 C   0  0  0  0  0  0  0  0  0  0  0  0
   13.6703   -4.0649    2.0219 C   0  0  1  0  0  0  0  0  0  0  0  0
   13.2180   -3.5642    3.3052 O   0  0  0  0  0  0  0  0  0  0  0  0
    9.8377   -3.0584    6.1618 H   0  0  0  0  0  0  0  0  0  0  0  0
   10.7813   -1.6763    5.5562 H   0  0  0  0  0  0  0  0  0  0  0  0
   11.2340   -2.5115    7.0874 H   0  0  0  0  0  0  0  0  0  0  0  0
   11.5394   -3.3958    4.3068 H   0  0  0  0  0  0  0  0  0  0  0  0
   13.3181   -4.0243    6.5288 H   0  0  0  0  0  0  0  0  0  0  0  0
   13.3279   -2.4236    5.7783 H   0  0  0  0  0  0  0  0  0  0  0  0
   14.9215   -3.4690    4.4396 H   0  0  0  0  0  0  0  0  0  0  0  0
   13.2874   -6.0030    4.7678 H   0  0  0  0  0  0  0  0  0  0  0  0
   14.9180   -5.6855    5.3085 H   0  0  0  0  0  0  0  0  0  0  0  0
   15.7475   -5.5829    3.0073 H   0  0  0  0  0  0  0  0  0  0  0  0
   14.8522   -7.0694    3.1961 H   0  0  0  0  0  0  0  0  0  0  0  0
   14.2842   -5.8438    1.0849 H   0  0  0  0  0  0  0  0  0  0  0  0
   12.0467   -6.0646    3.1065 H   0  0  0  0  0  0  0  0  0  0  0  0
   13.4859   -7.6655    0.0248 H   0  0  0  0  0  0  0  0  0  0  0  0
   14.0263  -10.0788   -0.0588 H   0  0  0  0  0  0  0  0  0  0  0  0
   13.3689  -11.5479    1.7562 H   0  0  0  0  0  0  0  0  0  0  0  0
   12.1558  -10.6000    3.7436 H   0  0  0  0  0  0  0  0  0  0  0  0
   11.6786   -8.2148    3.8567 H   0  0  0  0  0  0  0  0  0  0  0  0
   10.6349   -6.1769    1.2193 H   0  0  0  0  0  0  0  0  0  0  0  0
    9.6939   -4.5737   -0.2735 H   0  0  0  0  0  0  0  0  0  0  0  0
    9.6957   -2.2126   -0.9478 H   0  0  0  0  0  0  0  0  0  0  0  0
   10.6849   -0.0775   -1.0102 H   0  0  0  0  0  0  0  0  0  0  0  0
   12.3140    1.6302   -0.1991 H   0  0  0  0  0  0  0  0  0  0  0  0
   13.2591    0.3118    0.5811 H   0  0  0  0  0  0  0  0  0  0  0  0
   13.6249   -0.7707   -1.6380 H   0  0  0  0  0  0  0  0  0  0  0  0
   12.6673    0.5123   -2.4704 H   0  0  0  0  0  0  0  0  0  0  0  0
   13.6016   -1.7605    0.6850 H   0  0  0  0  0  0  0  0  0  0  0  0
   14.6406   -3.6039    1.8112 H   0  0  0  0  0  0  0  0  0  0  0  0
   11.2494   -4.5259    5.4999 H   0  0  0  0  0  0  0  0  0  0  0  0
  1  2  1  0
  1 27  1  0
  1 28  1  0
  1 29  1  0
  2  3  1  0
  2 30  1  0
  2 55  1  0
  3  4  1  0
  3 31  1  0
  3 32  1  0
  4  5  1  0
  4 26  1  0
  4 33  1  6
  5  6  1  0
  5 34  1  0
  5 35  1  0
  6  7  1  0
  6 36  1  0
  6 37  1  0
  7  8  1  0
  7 25  1  0
  7 38  1  6
  8  9  1  0
  8 15  1  0
  8 39  1  1
  9 10  2  0
  9 14  1  0
 10 11  1  0
 10 40  1  0
 11 12  2  0
 11 41  1  0
 12 13  1  0
 12 42  1  0
 13 14  2  0
 13 43  1  0
 14 44  1  0
 15 16  1  0
 15 45  1  0
 16 17  2  0
 16 24  1  0
 17 18  1  0
 17 46  1  0
 18 19  2  0
 18 47  1  0
 19 20  1  0
 19 23  1  0
 20 21  1  0
 20 22  1  0
 20 48  1  0
 21 22  1  0
 21 49  1  0
 21 50  1  0
 22 51  1  0
 22 52  1  0
 23 24  2  0
 23 53  1  0
 24 25  1  0
 25 26  1  0
 25 54  1  6
M  CHG  1   2   1
M  END
>  <r_exp_dg>  (18) 
-10.9219

>  <mol_id>  (18) 
17

>  <source_index>  (18) 
17

>  <paff>  (18) 
8.0072732964568818

>  <source_r_exp_dg>  (18) 
-10.921900000000001

>  <smiles>  (18) 
CNC[C@H]1CC[C@@H]2[C@H](O1)c1cc(C3CC3)ccc1N[C@H]2c1ccccc1

>  <aimnet_interaction_kcal_mol>  (18) 
-192.60832370629652

$$$$
eg5_018
     RDKit          3D

 48 51  0  0  1  0  0  0  0  0999 V2000
   10.9767   -3.3524    4.8123 N   0  0  0  0  0  0  0  0  0  0  0  0
   12.3055   -3.0905    5.4428 C   0  0  0  0  0  0  0  0  0  0  0  0
   13.4225   -3.5593    4.5096 C   0  0  1  0  0  0  0  0  0  0  0  0
   13.7151   -5.0446    4.6804 C   0  0  0  0  0  0  0  0  0  0  0  0
   14.4853   -5.5982    3.4948 C   0  0  0  0  0  0  0  0  0  0  0  0
   13.7695   -5.2725    2.1907 C   0  0  1  0  0  0  0  0  0  0  0  0
   12.4396   -6.0194    2.0810 C   0  0  2  0  0  0  0  0  0  0  0  0
   12.6279   -7.5111    1.9876 C   0  0  0  0  0  0  0  0  0  0  0  0
   12.1587   -8.3363    2.9993 C   0  0  0  0  0  0  0  0  0  0  0  0
   12.4077   -9.7045    2.9605 C   0  0  0  0  0  0  0  0  0  0  0  0
   13.0955  -10.2575    1.8886 C   0  0  0  0  0  0  0  0  0  0  0  0
   13.5221   -9.4381    0.8559 C   0  0  0  0  0  0  0  0  0  0  0  0
   13.2851   -8.0745    0.9005 C   0  0  0  0  0  0  0  0  0  0  0  0
   11.6663   -5.5549    0.9388 N   0  0  0  0  0  0  0  0  0  0  0  0
   11.6809   -4.2303    0.5694 C   0  0  0  0  0  0  0  0  0  0  0  0
   10.6399   -3.7075   -0.2084 C   0  0  0  0  0  0  0  0  0  0  0  0
   10.6745   -2.4017   -0.6360 C   0  0  0  0  0  0  0  0  0  0  0  0
   11.7912   -1.6154   -0.3880 C   0  0  0  0  0  0  0  0  0  0  0  0
   11.8758   -0.2684   -1.0052 C   0  0  0  0  0  0  0  0  0  0  0  0
   12.6063   -0.2748   -2.1608 F   0  0  0  0  0  0  0  0  0  0  0  0
   10.6557    0.2264   -1.3287 F   0  0  0  0  0  0  0  0  0  0  0  0
   12.4681    0.6501   -0.2017 F   0  0  0  0  0  0  0  0  0  0  0  0
   12.8239   -2.1151    0.3891 C   0  0  0  0  0  0  0  0  0  0  0  0
   12.7241   -3.3722    0.9472 C   0  0  0  0  0  0  0  0  0  0  0  0
   13.5961   -3.7643    2.0815 C   0  0  1  0  0  0  0  0  0  0  0  0
   12.9345   -3.2017    3.2352 O   0  0  0  0  0  0  0  0  0  0  0  0
   10.6297   -2.5000    4.2852 H   0  0  0  0  0  0  0  0  0  0  0  0
   10.3013   -3.7531    5.4767 H   0  0  0  0  0  0  0  0  0  0  0  0
   12.3733   -2.0214    5.6266 H   0  0  0  0  0  0  0  0  0  0  0  0
   12.3482   -3.6170    6.3944 H   0  0  0  0  0  0  0  0  0  0  0  0
   14.3411   -2.9933    4.7180 H   0  0  0  0  0  0  0  0  0  0  0  0
   14.2706   -5.1926    5.6077 H   0  0  0  0  0  0  0  0  0  0  0  0
   12.7765   -5.5861    4.8109 H   0  0  0  0  0  0  0  0  0  0  0  0
   15.4873   -5.1631    3.4743 H   0  0  0  0  0  0  0  0  0  0  0  0
   14.6099   -6.6743    3.5943 H   0  0  0  0  0  0  0  0  0  0  0  0
   14.3886   -5.5793    1.3482 H   0  0  0  0  0  0  0  0  0  0  0  0
   11.8675   -5.8220    2.9916 H   0  0  0  0  0  0  0  0  0  0  0  0
   11.5825   -7.9262    3.8162 H   0  0  0  0  0  0  0  0  0  0  0  0
   12.0559  -10.3274    3.7668 H   0  0  0  0  0  0  0  0  0  0  0  0
   13.3045  -11.3174    1.8341 H   0  0  0  0  0  0  0  0  0  0  0  0
   14.0310   -9.8850    0.0161 H   0  0  0  0  0  0  0  0  0  0  0  0
   13.5924   -7.4464    0.0756 H   0  0  0  0  0  0  0  0  0  0  0  0
   10.7499   -5.9805    0.9281 H   0  0  0  0  0  0  0  0  0  0  0  0
    9.7916   -4.3322   -0.4482 H   0  0  0  0  0  0  0  0  0  0  0  0
    9.8302   -1.9784   -1.1576 H   0  0  0  0  0  0  0  0  0  0  0  0
   13.7019   -1.5206    0.5855 H   0  0  0  0  0  0  0  0  0  0  0  0
   14.5844   -3.3011    1.9916 H   0  0  0  0  0  0  0  0  0  0  0  0
   11.0818   -4.0779    4.1026 H   0  0  0  0  0  0  0  0  0  0  0  0
  1  2  1  0
  1 27  1  0
  1 28  1  0
  1 48  1  0
  2  3  1  0
  2 29  1  0
  2 30  1  0
  3  4  1  0
  3 26  1  0
  3 31  1  1
  4  5  1  0
  4 32  1  0
  4 33  1  0
  5  6  1  0
  5 34  1  0
  5 35  1  0
  6  7  1  0
  6 25  1  0
  6 36  1  6
  7  8  1  0
  7 14  1  0
  7 37  1  1
  8  9  2  0
  8 13  1  0
  9 10  1  0
  9 38  1  0
 10 11  2  0
 10 39  1  0
 11 12  1  0
 11 40  1  0
 12 13  2  0
 12 41  1  0
 13 42  1  0
 14 15  1  0
 14 43  1  0
 15 16  2  0
 15 24  1  0
 16 17  1  0
 16 44  1  0
 17 18  2  0
 17 45  1  0
 18 19  1  0
 18 23  1  0
 19 20  1  0
 19 21  1  0
 19 22  1  0
 23 24  2  0
 23 46  1  0
 24 25  1  0
 25 26  1  0
 25 47  1  6
M  CHG  1   1   1
M  END
>  <r_exp_dg>  (19) 
-10.5656

>  <mol_id>  (19) 
18

>  <source_index>  (19) 
18

>  <paff>  (19) 
7.7460483372036659

>  <source_r_exp_dg>  (19) 
-10.5656

>  <smiles>  (19) 
NC[C@H]1CC[C@@H]2[C@H](O1)c1cc(C(F)(F)F)ccc1N[C@H]2c1ccccc1

>  <aimnet_interaction_kcal_mol>  (19) 
-206.6996776737212

$$$$
eg5_019
     RDKit          3D

 64 67  0  0  1  0  0  0  0  0999 V2000
   12.5215   -5.3228   11.3145 C   0  0  0  0  0  0  0  0  0  0  0  0
   11.1747   -4.7531   11.5518 N   0  0  0  0  0  0  0  0  0  0  0  0
   10.7298   -5.0535   12.9370 C   0  0  0  0  0  0  0  0  0  0  0  0
   11.0330   -3.2995   11.2436 C   0  0  0  0  0  0  0  0  0  0  0  0
   11.8055   -2.7680   10.0476 C   0  0  0  0  0  0  0  0  0  0  0  0
   11.4718   -3.3726    8.6763 C   0  0  0  0  0  0  0  0  0  0  0  0
   12.7588   -3.7071    7.9254 C   0  0  0  0  0  0  0  0  0  0  0  0
   13.7129   -4.1998    8.5322 O   0  0  0  0  0  0  0  0  0  0  0  0
   12.8252   -3.3821    6.6107 N   0  0  0  0  0  0  0  0  0  0  0  0
   14.0922   -3.0941    5.9691 C   0  0  0  0  0  0  0  0  0  0  0  0
   14.4063   -3.8599    4.7062 C   0  0  1  0  0  0  0  0  0  0  0  0
   14.4102   -5.3654    4.8424 C   0  0  0  0  0  0  0  0  0  0  0  0
   14.8349   -5.9826    3.5175 C   0  0  0  0  0  0  0  0  0  0  0  0
   13.9730   -5.4635    2.3683 C   0  0  1  0  0  0  0  0  0  0  0  0
   12.5879   -6.1093    2.3597 C   0  0  2  0  0  0  0  0  0  0  0  0
   12.6742   -7.6009    2.1523 C   0  0  0  0  0  0  0  0  0  0  0  0
   12.1764   -8.4778    3.1035 C   0  0  0  0  0  0  0  0  0  0  0  0
   12.4209   -9.8421    2.9979 C   0  0  0  0  0  0  0  0  0  0  0  0
   13.1023  -10.3444    1.8978 C   0  0  0  0  0  0  0  0  0  0  0  0
   13.5219   -9.4777    0.9028 C   0  0  0  0  0  0  0  0  0  0  0  0
   13.2898   -8.1177    1.0170 C   0  0  0  0  0  0  0  0  0  0  0  0
   11.7830   -5.5486    1.2839 N   0  0  0  0  0  0  0  0  0  0  0  0
   11.9173   -4.2329    0.9348 C   0  0  0  0  0  0  0  0  0  0  0  0
   10.9929   -3.6467    0.0614 C   0  0  0  0  0  0  0  0  0  0  0  0
    9.9603   -4.4288   -0.3578 F   0  0  0  0  0  0  0  0  0  0  0  0
   11.0813   -2.3517   -0.3796 C   0  0  0  0  0  0  0  0  0  0  0  0
   12.1817   -1.6105    0.0238 C   0  0  0  0  0  0  0  0  0  0  0  0
   12.4289    0.1447   -0.7086 Br  0  0  0  0  0  0  0  0  0  0  0  0
   13.1063   -2.1297    0.9041 C   0  0  0  0  0  0  0  0  0  0  0  0
   12.9559   -3.4171    1.3955 C   0  0  0  0  0  0  0  0  0  0  0  0
   13.9062   -3.9406    2.4040 C   0  0  1  0  0  0  0  0  0  0  0  0
   13.5076   -3.4415    3.6942 O   0  0  0  0  0  0  0  0  0  0  0  0
   13.2524   -4.8199   11.9468 H   0  0  0  0  0  0  0  0  0  0  0  0
   12.8043   -5.1979   10.2761 H   0  0  0  0  0  0  0  0  0  0  0  0
   12.4820   -6.3807   11.5521 H   0  0  0  0  0  0  0  0  0  0  0  0
   11.4721   -4.6903   13.6465 H   0  0  0  0  0  0  0  0  0  0  0  0
   10.5873   -6.1266   13.0226 H   0  0  0  0  0  0  0  0  0  0  0  0
    9.7767   -4.5604   13.1133 H   0  0  0  0  0  0  0  0  0  0  0  0
    9.9647   -3.1335   11.1115 H   0  0  0  0  0  0  0  0  0  0  0  0
   11.3472   -2.7595   12.1373 H   0  0  0  0  0  0  0  0  0  0  0  0
   11.6269   -1.6926   10.0120 H   0  0  0  0  0  0  0  0  0  0  0  0
   12.8705   -2.8830   10.2302 H   0  0  0  0  0  0  0  0  0  0  0  0
   10.8865   -4.2853    8.7744 H   0  0  0  0  0  0  0  0  0  0  0  0
   10.8591   -2.6911    8.0852 H   0  0  0  0  0  0  0  0  0  0  0  0
   11.9848   -3.2419    6.0694 H   0  0  0  0  0  0  0  0  0  0  0  0
   14.1290   -2.0326    5.7173 H   0  0  0  0  0  0  0  0  0  0  0  0
   14.8696   -3.3021    6.6974 H   0  0  0  0  0  0  0  0  0  0  0  0
   15.4275   -3.5456    4.4292 H   0  0  0  0  0  0  0  0  0  0  0  0
   15.0862   -5.6531    5.6498 H   0  0  0  0  0  0  0  0  0  0  0  0
   13.4157   -5.7091    5.1259 H   0  0  0  0  0  0  0  0  0  0  0  0
   15.8779   -5.7244    3.3170 H   0  0  0  0  0  0  0  0  0  0  0  0
   14.7849   -7.0677    3.5590 H   0  0  0  0  0  0  0  0  0  0  0  0
   14.4491   -5.7169    1.4200 H   0  0  0  0  0  0  0  0  0  0  0  0
   12.1085   -5.9139    3.3208 H   0  0  0  0  0  0  0  0  0  0  0  0
   11.5887   -8.1079    3.9293 H   0  0  0  0  0  0  0  0  0  0  0  0
   12.0759  -10.4987    3.7812 H   0  0  0  0  0  0  0  0  0  0  0  0
   13.3053  -11.4012    1.7889 H   0  0  0  0  0  0  0  0  0  0  0  0
   14.0174   -9.8846    0.0347 H   0  0  0  0  0  0  0  0  0  0  0  0
   13.5615   -7.4556    0.2056 H   0  0  0  0  0  0  0  0  0  0  0  0
   10.8376   -5.9046    1.2522 H   0  0  0  0  0  0  0  0  0  0  0  0
   10.3241   -1.9282   -1.0197 H   0  0  0  0  0  0  0  0  0  0  0  0
   13.9676   -1.5488    1.1801 H   0  0  0  0  0  0  0  0  0  0  0  0
   14.9113   -3.5571    2.1751 H   0  0  0  0  0  0  0  0  0  0  0  0
   10.4157   -5.3301   10.9417 H   0  0  0  0  0  0  0  0  0  0  0  0
  1  2  1  0
  1 33  1  0
  1 34  1  0
  1 35  1  0
  2  3  1  0
  2  4  1  0
  2 64  1  0
  3 36  1  0
  3 37  1  0
  3 38  1  0
  4  5  1  0
  4 39  1  0
  4 40  1  0
  5  6  1  0
  5 41  1  0
  5 42  1  0
  6  7  1  0
  6 43  1  0
  6 44  1  0
  7  8  2  0
  7  9  1  0
  9 10  1  0
  9 45  1  0
 10 11  1  0
 10 46  1  0
 10 47  1  0
 11 12  1  0
 11 32  1  0
 11 48  1  6
 12 13  1  0
 12 49  1  0
 12 50  1  0
 13 14  1  0
 13 51  1  0
 13 52  1  0
 14 15  1  0
 14 31  1  0
 14 53  1  6
 15 16  1  0
 15 22  1  0
 15 54  1  1
 16 17  2  0
 16 21  1  0
 17 18  1  0
 17 55  1  0
 18 19  2  0
 18 56  1  0
 19 20  1  0
 19 57  1  0
 20 21  2  0
 20 58  1  0
 21 59  1  0
 22 23  1  0
 22 60  1  0
 23 24  2  0
 23 30  1  0
 24 25  1  0
 24 26  1  0
 26 27  2  0
 26 61  1  0
 27 28  1  0
 27 29  1  0
 29 30  2  0
 29 62  1  0
 30 31  1  0
 31 32  1  0
 31 63  1  6
M  CHG  1   2   1
M  END
>  <r_exp_dg>  (20) 
-11.3918

>  <mol_id>  (20) 
19

>  <source_index>  (20) 
19

>  <paff>  (20) 
8.3517902407827957

>  <source_r_exp_dg>  (20) 
-11.3918

>  <smiles>  (20) 
CN(C)CCCC(=O)NC[C@H]1CC[C@@H]2[C@H](O1)c1cc(Br)cc(F)c1N[C@H]2c1ccccc1

>  <aimnet_interaction_kcal_mol>  (20) 
-220.49882121006996

$$$$
eg5_020
     RDKit          3D

 74 77  0  0  1  0  0  0  0  0999 V2000
   11.9939   -0.3595   -2.1342 C   0  0  0  0  0  0  0  0  0  0  0  0
   12.6824   -0.5371   -0.7992 C   0  0  0  0  0  0  0  0  0  0  0  0
   12.4862    0.6981    0.0638 C   0  0  0  0  0  0  0  0  0  0  0  0
   12.2707   -1.7892   -0.0841 C   0  0  0  0  0  0  0  0  0  0  0  0
   11.1489   -2.5400   -0.4243 C   0  0  0  0  0  0  0  0  0  0  0  0
   10.9451   -3.8029    0.0946 C   0  0  0  0  0  0  0  0  0  0  0  0
   11.8530   -4.3537    1.0166 C   0  0  0  0  0  0  0  0  0  0  0  0
   12.8958   -3.5346    1.4836 C   0  0  0  0  0  0  0  0  0  0  0  0
   13.0889   -2.2924    0.9175 C   0  0  0  0  0  0  0  0  0  0  0  0
   13.8276   -4.0368    2.5180 C   0  0  1  0  0  0  0  0  0  0  0  0
   13.3645   -3.6616    3.8261 O   0  0  0  0  0  0  0  0  0  0  0  0
   14.2941   -4.0240    4.8354 C   0  0  1  0  0  0  0  0  0  0  0  0
   13.8310   -3.3630    6.1412 C   0  0  0  0  0  0  0  0  0  0  0  0
   13.1933   -4.2027    7.1530 N   0  0  0  0  0  0  0  0  0  0  0  0
   14.1172   -4.9463    8.3234 S   0  0  0  0  0  0  0  0  0  0  0  0
   15.3553   -4.1610    8.4963 O   0  0  0  0  0  0  0  0  0  0  0  0
   14.2608   -6.4077    8.1139 O   0  0  0  0  0  0  0  0  0  0  0  0
   13.1112   -4.6653    9.8313 C   0  0  0  0  0  0  0  0  0  0  0  0
   13.6739   -5.4298   11.0238 C   0  0  0  0  0  0  0  0  0  0  0  0
   13.1894   -6.8671   11.0471 C   0  0  0  0  0  0  0  0  0  0  0  0
   13.6119   -7.6451   12.2705 N   0  0  0  0  0  0  0  0  0  0  0  0
   12.7266   -8.8450   12.4583 C   0  0  0  0  0  0  0  0  0  0  0  0
   15.0455   -8.0375   12.2020 C   0  0  0  0  0  0  0  0  0  0  0  0
   14.4854   -5.5287    4.8680 C   0  0  0  0  0  0  0  0  0  0  0  0
   14.9243   -6.0314    3.5001 C   0  0  0  0  0  0  0  0  0  0  0  0
   13.9924   -5.5394    2.3970 C   0  0  1  0  0  0  0  0  0  0  0  0
   12.6364   -6.2385    2.4083 C   0  0  2  0  0  0  0  0  0  0  0  0
   12.7554   -7.7131    2.1236 C   0  0  0  0  0  0  0  0  0  0  0  0
   13.3379   -8.1680    0.9445 C   0  0  0  0  0  0  0  0  0  0  0  0
   13.5375   -9.5225    0.7354 C   0  0  0  0  0  0  0  0  0  0  0  0
   13.1359  -10.4452    1.6863 C   0  0  0  0  0  0  0  0  0  0  0  0
   12.5124   -9.9975    2.8439 C   0  0  0  0  0  0  0  0  0  0  0  0
   12.2948   -8.6411    3.0441 C   0  0  0  0  0  0  0  0  0  0  0  0
   11.7316   -5.6555    1.4299 N   0  0  0  0  0  0  0  0  0  0  0  0
   12.0038   -1.2626   -2.7279 H   0  0  0  0  0  0  0  0  0  0  0  0
   12.4837    0.4223   -2.7113 H   0  0  0  0  0  0  0  0  0  0  0  0
   10.9540   -0.0723   -1.9971 H   0  0  0  0  0  0  0  0  0  0  0  0
   13.7500   -0.6504   -0.9857 H   0  0  0  0  0  0  0  0  0  0  0  0
   12.9451    0.5909    1.0437 H   0  0  0  0  0  0  0  0  0  0  0  0
   11.4265    0.8621    0.2135 H   0  0  0  0  0  0  0  0  0  0  0  0
   12.8976    1.5970   -0.3945 H   0  0  0  0  0  0  0  0  0  0  0  0
   10.4204   -2.1301   -1.1108 H   0  0  0  0  0  0  0  0  0  0  0  0
   10.0605   -4.3642   -0.1816 H   0  0  0  0  0  0  0  0  0  0  0  0
   13.9407   -1.7062    1.2293 H   0  0  0  0  0  0  0  0  0  0  0  0
   14.8084   -3.5720    2.3549 H   0  0  0  0  0  0  0  0  0  0  0  0
   15.2700   -3.5699    4.6010 H   0  0  0  0  0  0  0  0  0  0  0  0
   14.6688   -2.8808    6.6338 H   0  0  0  0  0  0  0  0  0  0  0  0
   13.1108   -2.5919    5.8836 H   0  0  0  0  0  0  0  0  0  0  0  0
   12.3414   -4.6832    6.8859 H   0  0  0  0  0  0  0  0  0  0  0  0
   13.1808   -3.5902    9.9683 H   0  0  0  0  0  0  0  0  0  0  0  0
   12.0786   -4.9217    9.6217 H   0  0  0  0  0  0  0  0  0  0  0  0
   14.7619   -5.3759   11.0109 H   0  0  0  0  0  0  0  0  0  0  0  0
   13.3274   -4.9198   11.9248 H   0  0  0  0  0  0  0  0  0  0  0  0
   12.1039   -6.8986   11.0546 H   0  0  0  0  0  0  0  0  0  0  0  0
   13.5733   -7.4364   10.2133 H   0  0  0  0  0  0  0  0  0  0  0  0
   12.8902   -9.4955   11.6069 H   0  0  0  0  0  0  0  0  0  0  0  0
   11.6855   -8.5157   12.4580 H   0  0  0  0  0  0  0  0  0  0  0  0
   13.0101   -9.3420   13.3829 H   0  0  0  0  0  0  0  0  0  0  0  0
   15.1582   -8.7374   11.3796 H   0  0  0  0  0  0  0  0  0  0  0  0
   15.3236   -8.5143   13.1333 H   0  0  0  0  0  0  0  0  0  0  0  0
   15.6660   -7.1622   12.0463 H   0  0  0  0  0  0  0  0  0  0  0  0
   15.2106   -5.7868    5.6380 H   0  0  0  0  0  0  0  0  0  0  0  0
   13.5481   -6.0123    5.1370 H   0  0  0  0  0  0  0  0  0  0  0  0
   15.9352   -5.6724    3.2930 H   0  0  0  0  0  0  0  0  0  0  0  0
   14.9740   -7.1168    3.4873 H   0  0  0  0  0  0  0  0  0  0  0  0
   14.4491   -5.7246    1.4248 H   0  0  0  0  0  0  0  0  0  0  0  0
   12.2121   -6.1128    3.4035 H   0  0  0  0  0  0  0  0  0  0  0  0
   13.6071   -7.4605    0.1712 H   0  0  0  0  0  0  0  0  0  0  0  0
   13.9923   -9.8785   -0.1762 H   0  0  0  0  0  0  0  0  0  0  0  0
   13.3033  -11.4978    1.4995 H   0  0  0  0  0  0  0  0  0  0  0  0
   12.1898  -10.6916    3.6035 H   0  0  0  0  0  0  0  0  0  0  0  0
   11.7512   -8.3212    3.9204 H   0  0  0  0  0  0  0  0  0  0  0  0
   10.7946   -6.0321    1.4728 H   0  0  0  0  0  0  0  0  0  0  0  0
   13.4692   -7.0371   13.0757 H   0  0  0  0  0  0  0  0  0  0  0  0
  1  2  1  0
  1 35  1  0
  1 36  1  0
  1 37  1  0
  2  3  1  0
  2  4  1  0
  2 38  1  0
  3 39  1  0
  3 40  1  0
  3 41  1  0
  4  5  2  0
  4  9  1  0
  5  6  1  0
  5 42  1  0
  6  7  2  0
  6 43  1  0
  7  8  1  0
  7 34  1  0
  8  9  2  0
  8 10  1  0
  9 44  1  0
 10 11  1  0
 10 26  1  0
 10 45  1  6
 11 12  1  0
 12 13  1  0
 12 24  1  0
 12 46  1  6
 13 14  1  0
 13 47  1  0
 13 48  1  0
 14 15  1  0
 14 49  1  0
 15 16  2  0
 15 17  2  0
 15 18  1  0
 18 19  1  0
 18 50  1  0
 18 51  1  0
 19 20  1  0
 19 52  1  0
 19 53  1  0
 20 21  1  0
 20 54  1  0
 20 55  1  0
 21 22  1  0
 21 23  1  0
 21 74  1  0
 22 56  1  0
 22 57  1  0
 22 58  1  0
 23 59  1  0
 23 60  1  0
 23 61  1  0
 24 25  1  0
 24 62  1  0
 24 63  1  0
 25 26  1  0
 25 64  1  0
 25 65  1  0
 26 27  1  0
 26 66  1  6
 27 28  1  0
 27 34  1  0
 27 67  1  1
 28 29  2  0
 28 33  1  0
 29 30  1  0
 29 68  1  0
 30 31  2  0
 30 69  1  0
 31 32  1  0
 31 70  1  0
 32 33  2  0
 32 71  1  0
 33 72  1  0
 34 73  1  0
M  CHG  1  21   1
M  END
>  <r_exp_dg>  (21) 
-11.938

>  <mol_id>  (21) 
20

>  <source_index>  (21) 
20

>  <paff>  (21) 
8.7521635542167591

>  <source_r_exp_dg>  (21) 
-11.938000000000001

>  <smiles>  (21) 
CC(C)c1ccc2c(c1)[C@H]1O[C@@H](CNS(=O)(=O)CCCN(C)C)CC[C@H]1[C@H](c1ccccc1)N2

>  <aimnet_interaction_kcal_mol>  (21) 
-204.83495090105825

$$$$
eg5_021
     RDKit          3D

 52 55  0  0  1  0  0  0  0  0999 V2000
   10.8043   -4.0523   10.1524 O   0  0  0  0  0  0  0  0  0  0  0  0
   10.4303   -3.6706    8.8822 C   0  0  0  0  0  0  0  0  0  0  0  0
   11.6690   -3.4547    8.0105 C   0  0  0  0  0  0  0  0  0  0  0  0
   11.2422   -3.2172    6.5905 N   0  0  0  0  0  0  0  0  0  0  0  0
   12.2021   -2.5288    5.6770 C   0  0  0  0  0  0  0  0  0  0  0  0
   13.1848   -3.4044    4.8805 C   0  0  1  0  0  0  0  0  0  0  0  0
   13.2683   -4.8913    5.1812 C   0  0  0  0  0  0  0  0  0  0  0  0
   14.1285   -5.5906    4.1290 C   0  0  0  0  0  0  0  0  0  0  0  0
   13.6641   -5.2841    2.7054 C   0  0  1  0  0  0  0  0  0  0  0  0
   12.3651   -6.0261    2.3628 C   0  0  2  0  0  0  0  0  0  0  0  0
   12.5991   -7.5084    2.2065 C   0  0  0  0  0  0  0  0  0  0  0  0
   13.3057   -7.9938    1.1126 C   0  0  0  0  0  0  0  0  0  0  0  0
   13.5529   -9.3507    0.9850 C   0  0  0  0  0  0  0  0  0  0  0  0
   13.1056  -10.2410    1.9469 C   0  0  0  0  0  0  0  0  0  0  0  0
   12.3853   -9.7635    3.0324 C   0  0  0  0  0  0  0  0  0  0  0  0
   12.1030   -8.4079    3.1378 C   0  0  0  0  0  0  0  0  0  0  0  0
   11.7712   -5.5333    1.1252 N   0  0  0  0  0  0  0  0  0  0  0  0
   11.8868   -4.2095    0.7828 C   0  0  0  0  0  0  0  0  0  0  0  0
   10.9718   -3.6206   -0.0900 C   0  0  0  0  0  0  0  0  0  0  0  0
    9.9049   -4.3771   -0.4534 F   0  0  0  0  0  0  0  0  0  0  0  0
   11.0934   -2.3393   -0.5664 C   0  0  0  0  0  0  0  0  0  0  0  0
   12.2063   -1.6128   -0.1711 C   0  0  0  0  0  0  0  0  0  0  0  0
   12.4635   -0.0131   -0.8443 Cl  0  0  0  0  0  0  0  0  0  0  0  0
   13.1073   -2.1285    0.7358 C   0  0  0  0  0  0  0  0  0  0  0  0
   12.8920   -3.3821    1.2792 C   0  0  0  0  0  0  0  0  0  0  0  0
   13.5550   -3.7710    2.5443 C   0  0  1  0  0  0  0  0  0  0  0  0
   12.7394   -3.1854    3.5651 O   0  0  0  0  0  0  0  0  0  0  0  0
   10.2965   -4.9075   10.3701 H   0  0  0  0  0  0  0  0  0  0  0  0
    9.7859   -4.4180    8.4027 H   0  0  0  0  0  0  0  0  0  0  0  0
    9.8678   -2.7184    8.9078 H   0  0  0  0  0  0  0  0  0  0  0  0
   12.2255   -2.5859    8.3582 H   0  0  0  0  0  0  0  0  0  0  0  0
   12.3305   -4.3139    8.0292 H   0  0  0  0  0  0  0  0  0  0  0  0
   10.8446   -4.1088    6.2119 H   0  0  0  0  0  0  0  0  0  0  0  0
   11.5888   -2.0176    4.9280 H   0  0  0  0  0  0  0  0  0  0  0  0
   12.7199   -1.7810    6.2731 H   0  0  0  0  0  0  0  0  0  0  0  0
   14.1952   -2.9816    5.0097 H   0  0  0  0  0  0  0  0  0  0  0  0
   13.6706   -5.0664    6.1800 H   0  0  0  0  0  0  0  0  0  0  0  0
   12.2645   -5.3001    5.1419 H   0  0  0  0  0  0  0  0  0  0  0  0
   15.1648   -5.2620    4.2444 H   0  0  0  0  0  0  0  0  0  0  0  0
   14.1242   -6.6668    4.2940 H   0  0  0  0  0  0  0  0  0  0  0  0
   14.4179   -5.6219    1.9940 H   0  0  0  0  0  0  0  0  0  0  0  0
   11.6650   -5.8673    3.1852 H   0  0  0  0  0  0  0  0  0  0  0  0
   13.6423   -7.3099    0.3446 H   0  0  0  0  0  0  0  0  0  0  0  0
   14.0948   -9.7363    0.1356 H   0  0  0  0  0  0  0  0  0  0  0  0
   13.3273  -11.2932    1.8288 H   0  0  0  0  0  0  0  0  0  0  0  0
   12.0373  -10.4362    3.8001 H   0  0  0  0  0  0  0  0  0  0  0  0
   11.4725   -8.0619    3.9408 H   0  0  0  0  0  0  0  0  0  0  0  0
   10.8418   -5.9032    0.9795 H   0  0  0  0  0  0  0  0  0  0  0  0
   10.3555   -1.9106   -1.2234 H   0  0  0  0  0  0  0  0  0  0  0  0
   13.9758   -1.5636    1.0183 H   0  0  0  0  0  0  0  0  0  0  0  0
   14.5628   -3.3362    2.5998 H   0  0  0  0  0  0  0  0  0  0  0  0
   10.4320   -2.6054    6.6246 H   0  0  0  0  0  0  0  0  0  0  0  0
  1  2  1  0
  1 28  1  0
  2  3  1  0
  2 29  1  0
  2 30  1  0
  3  4  1  0
  3 31  1  0
  3 32  1  0
  4  5  1  0
  4 33  1  0
  4 52  1  0
  5  6  1  0
  5 34  1  0
  5 35  1  0
  6  7  1  0
  6 27  1  0
  6 36  1  6
  7  8  1  0
  7 37  1  0
  7 38  1  0
  8  9  1  0
  8 39  1  0
  8 40  1  0
  9 10  1  0
  9 26  1  0
  9 41  1  6
 10 11  1  0
 10 17  1  0
 10 42  1  1
 11 12  2  0
 11 16  1  0
 12 13  1  0
 12 43  1  0
 13 14  2  0
 13 44  1  0
 14 15  1  0
 14 45  1  0
 15 16  2  0
 15 46  1  0
 16 47  1  0
 17 18  1  0
 17 48  1  0
 18 19  2  0
 18 25  1  0
 19 20  1  0
 19 21  1  0
 21 22  2  0
 21 49  1  0
 22 23  1  0
 22 24  1  0
 24 25  2  0
 24 50  1  0
 25 26  1  0
 26 27  1  0
 26 51  1  6
M  CHG  1   4   1
M  END
>  <r_exp_dg>  (22) 
-11.1913

>  <mol_id>  (22) 
21

>  <source_index>  (22) 
21

>  <paff>  (22) 
8.2047684800939464

>  <source_r_exp_dg>  (22) 
-11.1913

>  <smiles>  (22) 
OCCNC[C@H]1CC[C@@H]2[C@H](O1)c1cc(Cl)cc(F)c1N[C@H]2c1ccccc1

>  <aimnet_interaction_kcal_mol>  (22) 
-215.77806782471748

$$$$
eg5_022
     RDKit          3D

 51 54  0  0  1  0  0  0  0  0999 V2000
   12.6481    0.4906    0.2079 C   0  0  0  0  0  0  0  0  0  0  0  0
   11.8603   -0.3945   -0.7453 C   0  0  0  0  0  0  0  0  0  0  0  0
   10.4180    0.0996   -0.8534 C   0  0  0  0  0  0  0  0  0  0  0  0
   12.5171   -0.3782   -2.1262 C   0  0  0  0  0  0  0  0  0  0  0  0
   11.8731   -1.8142   -0.2214 C   0  0  0  0  0  0  0  0  0  0  0  0
   10.8438   -2.6876   -0.5508 C   0  0  0  0  0  0  0  0  0  0  0  0
   10.7743   -3.9554   -0.0283 C   0  0  0  0  0  0  0  0  0  0  0  0
   11.7651   -4.4269    0.8489 C   0  0  0  0  0  0  0  0  0  0  0  0
   12.8194   -3.5584    1.1780 C   0  0  0  0  0  0  0  0  0  0  0  0
   12.8693   -2.2964    0.6176 C   0  0  0  0  0  0  0  0  0  0  0  0
   13.8544   -3.9992    2.1450 C   0  0  1  0  0  0  0  0  0  0  0  0
   13.4950   -3.5287    3.4524 O   0  0  0  0  0  0  0  0  0  0  0  0
   14.4699   -3.8632    4.4261 C   0  0  0  0  0  0  0  0  0  0  0  0
   14.6809   -5.3597    4.5281 C   0  0  0  0  0  0  0  0  0  0  0  0
   15.0229   -5.9417    3.1674 C   0  0  0  0  0  0  0  0  0  0  0  0
   14.0082   -5.5117    2.1139 C   0  0  1  0  0  0  0  0  0  0  0  0
   12.6688   -6.2167    2.2860 C   0  0  2  0  0  0  0  0  0  0  0  0
   12.7655   -7.7069    2.0767 C   0  0  0  0  0  0  0  0  0  0  0  0
   12.2656   -8.5773    3.0334 C   0  0  0  0  0  0  0  0  0  0  0  0
   12.4778   -9.9458    2.9172 C   0  0  0  0  0  0  0  0  0  0  0  0
   13.1360  -10.4566    1.8067 C   0  0  0  0  0  0  0  0  0  0  0  0
   13.5643   -9.5952    0.8119 C   0  0  0  0  0  0  0  0  0  0  0  0
   13.3627   -8.2315    0.9347 C   0  0  0  0  0  0  0  0  0  0  0  0
   11.6851   -5.6924    1.3573 N   0  0  0  0  0  0  0  0  0  0  0  0
   12.5493    1.5480   -0.0315 H   0  0  0  0  0  0  0  0  0  0  0  0
   13.6989    0.2435    0.1664 H   0  0  0  0  0  0  0  0  0  0  0  0
   12.3153    0.3224    1.2229 H   0  0  0  0  0  0  0  0  0  0  0  0
    9.8518   -0.1298    0.0442 H   0  0  0  0  0  0  0  0  0  0  0  0
    9.9148   -0.3633   -1.7002 H   0  0  0  0  0  0  0  0  0  0  0  0
   10.3851    1.1748   -1.0105 H   0  0  0  0  0  0  0  0  0  0  0  0
   12.5948    0.6354   -2.5072 H   0  0  0  0  0  0  0  0  0  0  0  0
   11.9391   -0.9654   -2.8302 H   0  0  0  0  0  0  0  0  0  0  0  0
   13.5194   -0.7943   -2.0822 H   0  0  0  0  0  0  0  0  0  0  0  0
   10.0553   -2.3539   -1.2068 H   0  0  0  0  0  0  0  0  0  0  0  0
    9.9192   -4.5822   -0.2382 H   0  0  0  0  0  0  0  0  0  0  0  0
   13.7221   -1.6801    0.8579 H   0  0  0  0  0  0  0  0  0  0  0  0
   14.8201   -3.5589    1.8587 H   0  0  0  0  0  0  0  0  0  0  0  0
   15.4292   -3.3780    4.1856 H   0  0  0  0  0  0  0  0  0  0  0  0
   14.1159   -3.4442    5.3678 H   0  0  0  0  0  0  0  0  0  0  0  0
   15.4766   -5.5586    5.2496 H   0  0  0  0  0  0  0  0  0  0  0  0
   13.7754   -5.8226    4.9188 H   0  0  0  0  0  0  0  0  0  0  0  0
   16.0113   -5.5877    2.8648 H   0  0  0  0  0  0  0  0  0  0  0  0
   15.0720   -7.0267    3.2075 H   0  0  0  0  0  0  0  0  0  0  0  0
   14.3905   -5.7610    1.1249 H   0  0  0  0  0  0  0  0  0  0  0  0
   12.3218   -6.0436    3.3038 H   0  0  0  0  0  0  0  0  0  0  0  0
   11.7046   -8.2021    3.8759 H   0  0  0  0  0  0  0  0  0  0  0  0
   12.1320  -10.5943    3.7068 H   0  0  0  0  0  0  0  0  0  0  0  0
   13.3127  -11.5171    1.6900 H   0  0  0  0  0  0  0  0  0  0  0  0
   14.0408  -10.0098   -0.0638 H   0  0  0  0  0  0  0  0  0  0  0  0
   13.6478   -7.5736    0.1250 H   0  0  0  0  0  0  0  0  0  0  0  0
   10.7596   -6.0783    1.4850 H   0  0  0  0  0  0  0  0  0  0  0  0
  1  2  1  0
  1 25  1  0
  1 26  1  0
  1 27  1  0
  2  3  1  0
  2  4  1  0
  2  5  1  0
  3 28  1  0
  3 29  1  0
  3 30  1  0
  4 31  1  0
  4 32  1  0
  4 33  1  0
  5  6  2  0
  5 10  1  0
  6  7  1  0
  6 34  1  0
  7  8  2  0
  7 35  1  0
  8  9  1  0
  8 24  1  0
  9 10  2  0
  9 11  1  0
 10 36  1  0
 11 12  1  0
 11 16  1  0
 11 37  1  6
 12 13  1  0
 13 14  1  0
 13 38  1  0
 13 39  1  0
 14 15  1  0
 14 40  1  0
 14 41  1  0
 15 16  1  0
 15 42  1  0
 15 43  1  0
 16 17  1  0
 16 44  1  6
 17 18  1  0
 17 24  1  0
 17 45  1  1
 18 19  2  0
 18 23  1  0
 19 20  1  0
 19 46  1  0
 20 21  2  0
 20 47  1  0
 21 22  1  0
 21 48  1  0
 22 23  2  0
 22 49  1  0
 23 50  1  0
 24 51  1  0
M  END
>  <r_exp_dg>  (23) 
-9.49772

>  <mol_id>  (23) 
22

>  <source_index>  (23) 
22

>  <paff>  (23) 
6.9631390557610739

>  <source_r_exp_dg>  (23) 
-9.4977199999999993

>  <smiles>  (23) 
CC(C)(C)c1ccc2c(c1)[C@H]1OCCC[C@H]1[C@H](c1ccccc1)N2

>  <aimnet_interaction_kcal_mol>  (23) 
-46.65257749212001

$$$$
eg5_023
     RDKit          3D

 51 55  0  0  1  0  0  0  0  0999 V2000
   10.9567    0.2739   -0.9296 F   0  0  0  0  0  0  0  0  0  0  0  0
   12.1560   -0.3210   -0.7239 C   0  0  0  0  0  0  0  0  0  0  0  0
   12.8844    0.5292    0.0370 F   0  0  0  0  0  0  0  0  0  0  0  0
   12.7795   -0.3491   -1.9499 F   0  0  0  0  0  0  0  0  0  0  0  0
   12.0259   -1.6744   -0.1377 C   0  0  0  0  0  0  0  0  0  0  0  0
   10.9447   -2.4640   -0.5040 C   0  0  0  0  0  0  0  0  0  0  0  0
   10.8381   -3.7567   -0.0521 C   0  0  0  0  0  0  0  0  0  0  0  0
   11.7966   -4.2834    0.8315 C   0  0  0  0  0  0  0  0  0  0  0  0
   12.8536   -3.4527    1.2518 C   0  0  0  0  0  0  0  0  0  0  0  0
   12.9782   -2.1810    0.7299 C   0  0  0  0  0  0  0  0  0  0  0  0
   13.7894   -3.9238    2.2977 C   0  0  1  0  0  0  0  0  0  0  0  0
   13.3021   -3.4363    3.5599 O   0  0  0  0  0  0  0  0  0  0  0  0
   14.1312   -3.7884    4.6520 C   0  0  1  0  0  0  0  0  0  0  0  0
   13.4708   -3.1783    5.8733 C   0  0  0  0  0  0  0  0  0  0  0  0
   13.4585   -1.7282    5.8049 N   0  0  0  0  0  0  0  0  0  0  0  0
   12.7618   -0.9103    4.9892 C   0  0  0  0  0  0  0  0  0  0  0  0
   13.0696    0.3519    5.2539 N   0  0  0  0  0  0  0  0  0  0  0  0
   13.9819    0.2409    6.2577 C   0  0  0  0  0  0  0  0  0  0  0  0
   14.2595   -1.0003    6.6221 N   0  0  0  0  0  0  0  0  0  0  0  0
   14.2916   -5.2962    4.7666 C   0  0  0  0  0  0  0  0  0  0  0  0
   14.7874   -5.8865    3.4542 C   0  0  0  0  0  0  0  0  0  0  0  0
   13.9144   -5.4376    2.2878 C   0  0  1  0  0  0  0  0  0  0  0  0
   12.5466   -6.1155    2.3078 C   0  0  2  0  0  0  0  0  0  0  0  0
   12.6545   -7.6070    2.1101 C   0  0  0  0  0  0  0  0  0  0  0  0
   12.1674   -8.4818    3.0695 C   0  0  0  0  0  0  0  0  0  0  0  0
   12.4252   -9.8448    2.9739 C   0  0  0  0  0  0  0  0  0  0  0  0
   13.1082  -10.3489    1.8754 C   0  0  0  0  0  0  0  0  0  0  0  0
   13.5197   -9.4847    0.8745 C   0  0  0  0  0  0  0  0  0  0  0  0
   13.2779   -8.1254    0.9802 C   0  0  0  0  0  0  0  0  0  0  0  0
   11.6895   -5.5731    1.2655 N   0  0  0  0  0  0  0  0  0  0  0  0
   10.1757   -2.0426   -1.1342 H   0  0  0  0  0  0  0  0  0  0  0  0
    9.9889   -4.3651   -0.3335 H   0  0  0  0  0  0  0  0  0  0  0  0
   13.8322   -1.5844    1.0086 H   0  0  0  0  0  0  0  0  0  0  0  0
   14.7857   -3.4962    2.1149 H   0  0  0  0  0  0  0  0  0  0  0  0
   15.1279   -3.3358    4.5179 H   0  0  0  0  0  0  0  0  0  0  0  0
   12.4478   -3.5412    5.9560 H   0  0  0  0  0  0  0  0  0  0  0  0
   14.0141   -3.4381    6.7758 H   0  0  0  0  0  0  0  0  0  0  0  0
   12.0632   -1.2625    4.2475 H   0  0  0  0  0  0  0  0  0  0  0  0
   14.4639    1.0863    6.7210 H   0  0  0  0  0  0  0  0  0  0  0  0
   14.9850   -5.5212    5.5787 H   0  0  0  0  0  0  0  0  0  0  0  0
   13.3316   -5.7325    5.0426 H   0  0  0  0  0  0  0  0  0  0  0  0
   15.8153   -5.5634    3.2738 H   0  0  0  0  0  0  0  0  0  0  0  0
   14.8039   -6.9722    3.5025 H   0  0  0  0  0  0  0  0  0  0  0  0
   14.3986   -5.7022    1.3480 H   0  0  0  0  0  0  0  0  0  0  0  0
   12.0869   -5.9309    3.2780 H   0  0  0  0  0  0  0  0  0  0  0  0
   11.5798   -8.1133    3.8957 H   0  0  0  0  0  0  0  0  0  0  0  0
   12.0897  -10.4974    3.7646 H   0  0  0  0  0  0  0  0  0  0  0  0
   13.3189  -11.4047    1.7731 H   0  0  0  0  0  0  0  0  0  0  0  0
   14.0178   -9.8930    0.0086 H   0  0  0  0  0  0  0  0  0  0  0  0
   13.5491   -7.4656    0.1666 H   0  0  0  0  0  0  0  0  0  0  0  0
   10.7604   -5.9705    1.2750 H   0  0  0  0  0  0  0  0  0  0  0  0
  1  2  1  0
  2  3  1  0
  2  4  1  0
  2  5  1  0
  5  6  2  0
  5 10  1  0
  6  7  1  0
  6 31  1  0
  7  8  2  0
  7 32  1  0
  8  9  1  0
  8 30  1  0
  9 10  2  0
  9 11  1  0
 10 33  1  0
 11 12  1  0
 11 22  1  0
 11 34  1  6
 12 13  1  0
 13 14  1  0
 13 20  1  0
 13 35  1  6
 14 15  1  0
 14 36  1  0
 14 37  1  0
 15 16  1  0
 15 19  1  0
 16 17  2  0
 16 38  1  0
 17 18  1  0
 18 19  2  0
 18 39  1  0
 20 21  1  0
 20 40  1  0
 20 41  1  0
 21 22  1  0
 21 42  1  0
 21 43  1  0
 22 23  1  0
 22 44  1  6
 23 24  1  0
 23 30  1  0
 23 45  1  1
 24 25  2  0
 24 29  1  0
 25 26  1  0
 25 46  1  0
 26 27  2  0
 26 47  1  0
 27 28  1  0
 27 48  1  0
 28 29  2  0
 28 49  1  0
 29 50  1  0
 30 51  1  0
M  END
>  <r_exp_dg>  (24) 
-11.2832

>  <mol_id>  (24) 
23

>  <source_index>  (24) 
23

>  <paff>  (24) 
8.2721241758016539

>  <source_r_exp_dg>  (24) 
-11.283200000000001

>  <smiles>  (24) 
FC(F)(F)c1ccc2c(c1)[C@H]1O[C@@H](Cn3cncn3)CC[C@H]1[C@H](c1ccccc1)N2

>  <aimnet_interaction_kcal_mol>  (24) 
-57.478112824856865

$$$$
eg5_024
     RDKit          3D

 65 68  0  0  1  0  0  0  0  0999 V2000
   15.1678   -8.2616   11.8641 C   0  0  0  0  0  0  0  0  0  0  0  0
   13.7802   -8.0185   11.3894 N   0  0  0  0  0  0  0  0  0  0  0  0
   12.7778   -8.4497   12.4121 C   0  0  0  0  0  0  0  0  0  0  0  0
   13.5571   -6.5939   10.9715 C   0  0  0  0  0  0  0  0  0  0  0  0
   14.4466   -6.1957    9.8010 C   0  0  0  0  0  0  0  0  0  0  0  0
   13.6932   -5.3521    8.9378 O   0  0  0  0  0  0  0  0  0  0  0  0
   14.4078   -4.8515    7.8717 C   0  0  0  0  0  0  0  0  0  0  0  0
   15.6232   -4.9282    7.8106 O   0  0  0  0  0  0  0  0  0  0  0  0
   13.5895   -4.2800    6.9710 N   0  0  0  0  0  0  0  0  0  0  0  0
   14.1081   -3.3836    5.9484 C   0  0  0  0  0  0  0  0  0  0  0  0
   14.4940   -4.0246    4.6090 C   0  0  1  0  0  0  0  0  0  0  0  0
   14.6792   -5.5306    4.6248 C   0  0  0  0  0  0  0  0  0  0  0  0
   15.0262   -6.0244    3.2299 C   0  0  0  0  0  0  0  0  0  0  0  0
   14.0214   -5.5238    2.2001 C   0  0  1  0  0  0  0  0  0  0  0  0
   12.6629   -6.2041    2.3243 C   0  0  2  0  0  0  0  0  0  0  0  0
   12.7418   -7.6901    2.0933 C   0  0  0  0  0  0  0  0  0  0  0  0
   12.2479   -8.5733    3.0420 C   0  0  0  0  0  0  0  0  0  0  0  0
   12.4690   -9.9382    2.9099 C   0  0  0  0  0  0  0  0  0  0  0  0
   13.1280  -10.4350    1.7933 C   0  0  0  0  0  0  0  0  0  0  0  0
   13.5499   -9.5596    0.8072 C   0  0  0  0  0  0  0  0  0  0  0  0
   13.3397   -8.1985    0.9451 C   0  0  0  0  0  0  0  0  0  0  0  0
   11.7197   -5.6344    1.3753 N   0  0  0  0  0  0  0  0  0  0  0  0
   11.8226   -4.3453    0.9364 C   0  0  0  0  0  0  0  0  0  0  0  0
   10.8676   -3.8287    0.0414 C   0  0  0  0  0  0  0  0  0  0  0  0
   10.9785   -2.5435   -0.4303 C   0  0  0  0  0  0  0  0  0  0  0  0
   12.0519   -1.7458   -0.0580 C   0  0  0  0  0  0  0  0  0  0  0  0
   12.1821   -0.3957   -0.6502 C   0  0  0  0  0  0  0  0  0  0  0  0
   10.9854    0.1997   -0.8684 F   0  0  0  0  0  0  0  0  0  0  0  0
   12.9024    0.4617    0.1145 F   0  0  0  0  0  0  0  0  0  0  0  0
   12.8173   -0.4261   -1.8696 F   0  0  0  0  0  0  0  0  0  0  0  0
   12.9988   -2.2423    0.8210 C   0  0  0  0  0  0  0  0  0  0  0  0
   12.8769   -3.5085    1.3555 C   0  0  0  0  0  0  0  0  0  0  0  0
   13.8773   -4.0171    2.3219 C   0  0  1  0  0  0  0  0  0  0  0  0
   13.5057   -3.6422    3.6619 O   0  0  0  0  0  0  0  0  0  0  0  0
   15.3000   -7.8021   12.8399 H   0  0  0  0  0  0  0  0  0  0  0  0
   15.8787   -7.8510   11.1558 H   0  0  0  0  0  0  0  0  0  0  0  0
   15.3225   -9.3321   11.9268 H   0  0  0  0  0  0  0  0  0  0  0  0
   12.8883   -7.8149   13.2894 H   0  0  0  0  0  0  0  0  0  0  0  0
   12.9948   -9.4781   12.6802 H   0  0  0  0  0  0  0  0  0  0  0  0
   11.7566   -8.3555   12.0110 H   0  0  0  0  0  0  0  0  0  0  0  0
   12.5060   -6.4949   10.7200 H   0  0  0  0  0  0  0  0  0  0  0  0
   13.7541   -5.9667   11.8403 H   0  0  0  0  0  0  0  0  0  0  0  0
   15.3456   -5.6810   10.1362 H   0  0  0  0  0  0  0  0  0  0  0  0
   14.7768   -7.0743    9.2336 H   0  0  0  0  0  0  0  0  0  0  0  0
   12.5975   -4.4578    7.0083 H   0  0  0  0  0  0  0  0  0  0  0  0
   13.3510   -2.6315    5.7525 H   0  0  0  0  0  0  0  0  0  0  0  0
   14.9756   -2.8871    6.3724 H   0  0  0  0  0  0  0  0  0  0  0  0
   15.4577   -3.5775    4.3137 H   0  0  0  0  0  0  0  0  0  0  0  0
   15.4552   -5.7929    5.3395 H   0  0  0  0  0  0  0  0  0  0  0  0
   13.7587   -6.0059    4.9570 H   0  0  0  0  0  0  0  0  0  0  0  0
   16.0213   -5.6643    2.9603 H   0  0  0  0  0  0  0  0  0  0  0  0
   15.0720   -7.1093    3.2047 H   0  0  0  0  0  0  0  0  0  0  0  0
   14.4026   -5.7221    1.1994 H   0  0  0  0  0  0  0  0  0  0  0  0
   12.2909   -6.0352    3.3338 H   0  0  0  0  0  0  0  0  0  0  0  0
   11.6815   -8.2105    3.8873 H   0  0  0  0  0  0  0  0  0  0  0  0
   12.1199  -10.5994    3.6875 H   0  0  0  0  0  0  0  0  0  0  0  0
   13.3068  -11.4936    1.6629 H   0  0  0  0  0  0  0  0  0  0  0  0
   14.0279   -9.9610   -0.0735 H   0  0  0  0  0  0  0  0  0  0  0  0
   13.6201   -7.5282    0.1437 H   0  0  0  0  0  0  0  0  0  0  0  0
   10.7884   -6.0199    1.4477 H   0  0  0  0  0  0  0  0  0  0  0  0
   10.0160   -4.4377   -0.2314 H   0  0  0  0  0  0  0  0  0  0  0  0
   10.2169   -2.1357   -1.0795 H   0  0  0  0  0  0  0  0  0  0  0  0
   13.8556   -1.6429    1.0839 H   0  0  0  0  0  0  0  0  0  0  0  0
   14.8503   -3.5640    2.0881 H   0  0  0  0  0  0  0  0  0  0  0  0
   13.6713   -8.6672   10.5750 H   0  0  0  0  0  0  0  0  0  0  0  0
  1  2  1  0
  1 35  1  0
  1 36  1  0
  1 37  1  0
  2  3  1  0
  2  4  1  0
  2 65  1  0
  3 38  1  0
  3 39  1  0
  3 40  1  0
  4  5  1  0
  4 41  1  0
  4 42  1  0
  5  6  1  0
  5 43  1  0
  5 44  1  0
  6  7  1  0
  7  8  2  0
  7  9  1  0
  9 10  1  0
  9 45  1  0
 10 11  1  0
 10 46  1  0
 10 47  1  0
 11 12  1  0
 11 34  1  0
 11 48  1  6
 12 13  1  0
 12 49  1  0
 12 50  1  0
 13 14  1  0
 13 51  1  0
 13 52  1  0
 14 15  1  0
 14 33  1  0
 14 53  1  6
 15 16  1  0
 15 22  1  0
 15 54  1  1
 16 17  2  0
 16 21  1  0
 17 18  1  0
 17 55  1  0
 18 19  2  0
 18 56  1  0
 19 20  1  0
 19 57  1  0
 20 21  2  0
 20 58  1  0
 21 59  1  0
 22 23  1  0
 22 60  1  0
 23 24  2  0
 23 32  1  0
 24 25  1  0
 24 61  1  0
 25 26  2  0
 25 62  1  0
 26 27  1  0
 26 31  1  0
 27 28  1  0
 27 29  1  0
 27 30  1  0
 31 32  2  0
 31 63  1  0
 32 33  1  0
 33 34  1  0
 33 64  1  6
M  CHG  1   2   1
M  END
>  <r_exp_dg>  (25) 
-10.7782

>  <mol_id>  (25) 
24

>  <source_index>  (25) 
24

>  <paff>  (25) 
7.9018978778917415

>  <source_r_exp_dg>  (25) 
-10.7782

>  <smiles>  (25) 
CN(C)CCOC(=O)NC[C@H]1CC[C@@H]2[C@H](O1)c1cc(C(F)(F)F)ccc1N[C@H]2c1ccccc1

>  <aimnet_interaction_kcal_mol>  (25) 
-211.40555032240673

$$$$
eg5_025
     RDKit          3D

 70 73  0  0  1  0  0  0  0  0999 V2000
   11.4716   -2.6910    6.3008 C   0  0  0  0  0  0  0  0  0  0  0  0
   12.6332   -3.0443    7.1881 C   0  0  0  0  0  0  0  0  0  0  0  0
   13.7043   -3.8422    6.4692 N   0  0  2  0  0  0  0  0  0  0  0  0
   14.6799   -4.4808    7.4310 C   0  0  0  0  0  0  0  0  0  0  0  0
   14.1611   -5.7408    8.0804 C   0  0  0  0  0  0  0  0  0  0  0  0
   15.2175   -6.2360    8.8813 O   0  0  0  0  0  0  0  0  0  0  0  0
   14.4482   -3.0164    5.4483 C   0  0  0  0  0  0  0  0  0  0  0  0
   14.7435   -3.8009    4.1751 C   0  0  1  0  0  0  0  0  0  0  0  0
   14.9901   -5.2994    4.2990 C   0  0  0  0  0  0  0  0  0  0  0  0
   15.1746   -5.8961    2.9114 C   0  0  0  0  0  0  0  0  0  0  0  0
   14.0617   -5.5002    1.9487 C   0  0  1  0  0  0  0  0  0  0  0  0
   12.7312   -6.2055    2.2171 C   0  0  2  0  0  0  0  0  0  0  0  0
   12.8321   -7.7012    2.0702 C   0  0  0  0  0  0  0  0  0  0  0  0
   12.3426   -8.5354    3.0639 C   0  0  0  0  0  0  0  0  0  0  0  0
   12.4958   -9.9125    2.9586 C   0  0  0  0  0  0  0  0  0  0  0  0
   13.1332  -10.4592    1.8528 C   0  0  0  0  0  0  0  0  0  0  0  0
   13.5783   -9.6297    0.8383 C   0  0  0  0  0  0  0  0  0  0  0  0
   13.4007   -8.2615    0.9316 C   0  0  0  0  0  0  0  0  0  0  0  0
   11.7076   -5.7247    1.3055 N   0  0  0  0  0  0  0  0  0  0  0  0
   11.7329   -4.4361    0.8241 C   0  0  0  0  0  0  0  0  0  0  0  0
   10.7037   -3.9565    0.0059 C   0  0  0  0  0  0  0  0  0  0  0  0
   10.7249   -2.6705   -0.4856 C   0  0  0  0  0  0  0  0  0  0  0  0
   11.7747   -1.8032   -0.2160 C   0  0  0  0  0  0  0  0  0  0  0  0
   11.7750   -0.3900   -0.7609 C   0  0  0  0  0  0  0  0  0  0  0  0
   12.5913    0.4915    0.1744 C   0  0  0  0  0  0  0  0  0  0  0  0
   10.3401    0.1191   -0.8650 C   0  0  0  0  0  0  0  0  0  0  0  0
   12.4278   -0.4136   -2.1428 C   0  0  0  0  0  0  0  0  0  0  0  0
   12.8116   -2.2906    0.5587 C   0  0  0  0  0  0  0  0  0  0  0  0
   12.7839   -3.5590    1.1067 C   0  0  0  0  0  0  0  0  0  0  0  0
   13.8864   -3.9982    1.9779 C   0  0  1  0  0  0  0  0  0  0  0  0
   13.6366   -3.5511    3.3384 O   0  0  0  0  0  0  0  0  0  0  0  0
   10.7748   -2.1142    6.9043 H   0  0  0  0  0  0  0  0  0  0  0  0
   10.9466   -3.5799    5.9620 H   0  0  0  0  0  0  0  0  0  0  0  0
   11.7301   -2.0852    5.4384 H   0  0  0  0  0  0  0  0  0  0  0  0
   13.1421   -2.1671    7.5856 H   0  0  0  0  0  0  0  0  0  0  0  0
   12.3117   -3.6602    8.0243 H   0  0  0  0  0  0  0  0  0  0  0  0
   15.5844   -4.7019    6.8744 H   0  0  0  0  0  0  0  0  0  0  0  0
   14.9150   -3.7283    8.1804 H   0  0  0  0  0  0  0  0  0  0  0  0
   13.2679   -5.5279    8.6626 H   0  0  0  0  0  0  0  0  0  0  0  0
   13.8997   -6.4623    7.3023 H   0  0  0  0  0  0  0  0  0  0  0  0
   14.8842   -6.9481    9.4463 H   0  0  0  0  0  0  0  0  0  0  0  0
   13.8291   -2.1666    5.1921 H   0  0  0  0  0  0  0  0  0  0  0  0
   15.3429   -2.6408    5.9378 H   0  0  0  0  0  0  0  0  0  0  0  0
   15.6556   -3.3567    3.7477 H   0  0  0  0  0  0  0  0  0  0  0  0
   15.8692   -5.4913    4.9107 H   0  0  0  0  0  0  0  0  0  0  0  0
   14.1404   -5.7948    4.7759 H   0  0  0  0  0  0  0  0  0  0  0  0
   16.1268   -5.5481    2.5087 H   0  0  0  0  0  0  0  0  0  0  0  0
   15.2369   -6.9746    2.9785 H   0  0  0  0  0  0  0  0  0  0  0  0
   14.3696   -5.7547    0.9360 H   0  0  0  0  0  0  0  0  0  0  0  0
   12.4345   -5.9861    3.2456 H   0  0  0  0  0  0  0  0  0  0  0  0
   11.8218   -8.1232    3.9171 H   0  0  0  0  0  0  0  0  0  0  0  0
   12.1166  -10.5425    3.7479 H   0  0  0  0  0  0  0  0  0  0  0  0
   13.2808  -11.5259    1.7526 H   0  0  0  0  0  0  0  0  0  0  0  0
   14.0431  -10.0722   -0.0302 H   0  0  0  0  0  0  0  0  0  0  0  0
   13.6765   -7.6302    0.0984 H   0  0  0  0  0  0  0  0  0  0  0  0
   10.7895   -6.0982    1.5070 H   0  0  0  0  0  0  0  0  0  0  0  0
    9.8595   -4.5978   -0.1980 H   0  0  0  0  0  0  0  0  0  0  0  0
    9.8906   -2.3291   -1.0787 H   0  0  0  0  0  0  0  0  0  0  0  0
   12.4946    1.5491   -0.0601 H   0  0  0  0  0  0  0  0  0  0  0  0
   13.6408    0.2388    0.1078 H   0  0  0  0  0  0  0  0  0  0  0  0
   12.2818    0.3263    1.1973 H   0  0  0  0  0  0  0  0  0  0  0  0
    9.7780   -0.0941    0.0392 H   0  0  0  0  0  0  0  0  0  0  0  0
    9.8268   -0.3474   -1.7029 H   0  0  0  0  0  0  0  0  0  0  0  0
   10.3163    1.1920   -1.0347 H   0  0  0  0  0  0  0  0  0  0  0  0
   12.5338    0.5888   -2.5453 H   0  0  0  0  0  0  0  0  0  0  0  0
   11.8339   -0.9971   -2.8354 H   0  0  0  0  0  0  0  0  0  0  0  0
   13.4176   -0.8572   -2.0905 H   0  0  0  0  0  0  0  0  0  0  0  0
   13.6800   -1.6809    0.7534 H   0  0  0  0  0  0  0  0  0  0  0  0
   14.8188   -3.5353    1.6339 H   0  0  0  0  0  0  0  0  0  0  0  0
   13.2148   -4.5794    5.9578 H   0  0  0  0  0  0  0  0  0  0  0  0
  1  2  1  0
  1 32  1  0
  1 33  1  0
  1 34  1  0
  2  3  1  0
  2 35  1  0
  2 36  1  0
  3  4  1  0
  3  7  1  0
  3 70  1  6
  4  5  1  0
  4 37  1  0
  4 38  1  0
  5  6  1  0
  5 39  1  0
  5 40  1  0
  6 41  1  0
  7  8  1  0
  7 42  1  0
  7 43  1  0
  8  9  1  0
  8 31  1  0
  8 44  1  6
  9 10  1  0
  9 45  1  0
  9 46  1  0
 10 11  1  0
 10 47  1  0
 10 48  1  0
 11 12  1  0
 11 30  1  0
 11 49  1  6
 12 13  1  0
 12 19  1  0
 12 50  1  1
 13 14  2  0
 13 18  1  0
 14 15  1  0
 14 51  1  0
 15 16  2  0
 15 52  1  0
 16 17  1  0
 16 53  1  0
 17 18  2  0
 17 54  1  0
 18 55  1  0
 19 20  1  0
 19 56  1  0
 20 21  2  0
 20 29  1  0
 21 22  1  0
 21 57  1  0
 22 23  2  0
 22 58  1  0
 23 24  1  0
 23 28  1  0
 24 25  1  0
 24 26  1  0
 24 27  1  0
 25 59  1  0
 25 60  1  0
 25 61  1  0
 26 62  1  0
 26 63  1  0
 26 64  1  0
 27 65  1  0
 27 66  1  0
 27 67  1  0
 28 29  2  0
 28 68  1  0
 29 30  1  0
 30 31  1  0
 30 69  1  6
M  CHG  1   3   1
M  END
>  <r_exp_dg>  (26) 
-10.5962

>  <mol_id>  (26) 
25

>  <source_index>  (26) 
25

>  <paff>  (26) 
7.7684610819886499

>  <source_r_exp_dg>  (26) 
-10.5962

>  <smiles>  (26) 
CCN(CCO)C[C@H]1CC[C@@H]2[C@H](O1)c1cc(C(C)(C)C)ccc1N[C@H]2c1ccccc1

>  <aimnet_interaction_kcal_mol>  (26) 
-178.51658969214301

$$$$
eg5_026
     RDKit          3D

 48 51  0  0  1  0  0  0  0  0999 V2000
   12.6428    0.4212    0.2365 C   0  0  0  0  0  0  0  0  0  0  0  0
   11.8492   -0.4431   -0.7322 C   0  0  0  0  0  0  0  0  0  0  0  0
   12.5055   -0.4028   -2.1129 C   0  0  0  0  0  0  0  0  0  0  0  0
   10.4119    0.0659   -0.8364 C   0  0  0  0  0  0  0  0  0  0  0  0
   11.8545   -1.8730   -0.2327 C   0  0  0  0  0  0  0  0  0  0  0  0
   10.8086   -2.7294   -0.5528 C   0  0  0  0  0  0  0  0  0  0  0  0
   10.7405   -4.0075   -0.0530 C   0  0  0  0  0  0  0  0  0  0  0  0
   11.7445   -4.5078    0.7894 C   0  0  0  0  0  0  0  0  0  0  0  0
   12.8198   -3.6612    1.0976 C   0  0  0  0  0  0  0  0  0  0  0  0
   12.8633   -2.3819    0.5743 C   0  0  0  0  0  0  0  0  0  0  0  0
   13.8890   -4.1221    2.0193 C   0  0  1  0  0  0  0  0  0  0  0  0
   13.6305   -3.5522    3.3084 O   0  0  0  0  0  0  0  0  0  0  0  0
   14.6223   -3.9058    4.2580 C   0  0  0  0  0  0  0  0  0  0  0  0
   14.7170   -5.4047    4.4427 C   0  0  0  0  0  0  0  0  0  0  0  0
   14.9765   -6.0843    3.1091 C   0  0  0  0  0  0  0  0  0  0  0  0
   13.9643   -5.6408    2.0601 C   0  0  1  0  0  0  0  0  0  0  0  0
   12.5861   -6.2538    2.2893 C   0  0  2  0  0  0  0  0  0  0  0  0
   12.6050   -7.7437    2.2788 C   0  0  0  0  0  0  0  0  0  0  0  0
   12.1025   -8.5668    3.2269 C   0  0  0  0  0  0  0  0  0  0  0  0
   12.4006   -9.9373    3.0085 C   0  0  0  0  0  0  0  0  0  0  0  0
   13.0783  -10.1625    1.8502 C   0  0  0  0  0  0  0  0  0  0  0  0
   13.3915   -8.6659    1.0162 S   0  0  0  0  0  0  0  0  0  0  0  0
   11.6568   -5.7862    1.2788 N   0  0  0  0  0  0  0  0  0  0  0  0
   12.5434    1.4829    0.0154 H   0  0  0  0  0  0  0  0  0  0  0  0
   13.6942    0.1757    0.1877 H   0  0  0  0  0  0  0  0  0  0  0  0
   12.3113    0.2345    1.2491 H   0  0  0  0  0  0  0  0  0  0  0  0
   12.5884    0.6186   -2.4715 H   0  0  0  0  0  0  0  0  0  0  0  0
   11.9241   -0.9716   -2.8290 H   0  0  0  0  0  0  0  0  0  0  0  0
   13.5059   -0.8241   -2.0787 H   0  0  0  0  0  0  0  0  0  0  0  0
    9.9045   -0.3870   -1.6863 H   0  0  0  0  0  0  0  0  0  0  0  0
   10.3920    1.1422   -0.9898 H   0  0  0  0  0  0  0  0  0  0  0  0
    9.8423   -0.1597    0.0600 H   0  0  0  0  0  0  0  0  0  0  0  0
   10.0060   -2.3751   -1.1805 H   0  0  0  0  0  0  0  0  0  0  0  0
    9.8748   -4.6225   -0.2514 H   0  0  0  0  0  0  0  0  0  0  0  0
   13.7209   -1.7766    0.8265 H   0  0  0  0  0  0  0  0  0  0  0  0
   14.8605   -3.7591    1.6562 H   0  0  0  0  0  0  0  0  0  0  0  0
   15.6040   -3.5175    3.9431 H   0  0  0  0  0  0  0  0  0  0  0  0
   14.3494   -3.4013    5.1837 H   0  0  0  0  0  0  0  0  0  0  0  0
   15.5140   -5.6230    5.1570 H   0  0  0  0  0  0  0  0  0  0  0  0
   13.7878   -5.7703    4.8792 H   0  0  0  0  0  0  0  0  0  0  0  0
   15.9752   -5.8203    2.7532 H   0  0  0  0  0  0  0  0  0  0  0  0
   14.9533   -7.1660    3.2147 H   0  0  0  0  0  0  0  0  0  0  0  0
   14.2980   -5.9597    1.0718 H   0  0  0  0  0  0  0  0  0  0  0  0
   12.2323   -5.9594    3.2813 H   0  0  0  0  0  0  0  0  0  0  0  0
   11.5300   -8.2081    4.0597 H   0  0  0  0  0  0  0  0  0  0  0  0
   12.1263  -10.7083    3.7043 H   0  0  0  0  0  0  0  0  0  0  0  0
   13.4233  -11.0865    1.4065 H   0  0  0  0  0  0  0  0  0  0  0  0
   10.7227   -6.1506    1.4156 H   0  0  0  0  0  0  0  0  0  0  0  0
  1  2  1  0
  1 24  1  0
  1 25  1  0
  1 26  1  0
  2  3  1  0
  2  4  1  0
  2  5  1  0
  3 27  1  0
  3 28  1  0
  3 29  1  0
  4 30  1  0
  4 31  1  0
  4 32  1  0
  5  6  2  0
  5 10  1  0
  6  7  1  0
  6 33  1  0
  7  8  2  0
  7 34  1  0
  8  9  1  0
  8 23  1  0
  9 10  2  0
  9 11  1  0
 10 35  1  0
 11 12  1  0
 11 16  1  0
 11 36  1  6
 12 13  1  0
 13 14  1  0
 13 37  1  0
 13 38  1  0
 14 15  1  0
 14 39  1  0
 14 40  1  0
 15 16  1  0
 15 41  1  0
 15 42  1  0
 16 17  1  0
 16 43  1  6
 17 18  1  0
 17 23  1  0
 17 44  1  1
 18 19  2  0
 18 22  1  0
 19 20  1  0
 19 45  1  0
 20 21  2  0
 20 46  1  0
 21 22  1  0
 21 47  1  0
 23 48  1  0
M  END
>  <r_exp_dg>  (27) 
-10.4326

>  <mol_id>  (27) 
26

>  <source_index>  (27) 
26

>  <paff>  (27) 
7.6485456259719085

>  <source_r_exp_dg>  (27) 
-10.432600000000001

>  <smiles>  (27) 
CC(C)(C)c1ccc2c(c1)[C@H]1OCCC[C@H]1[C@H](c1cccs1)N2

>  <aimnet_interaction_kcal_mol>  (27) 
-44.921514676846527

$$$$
eg5_027
     RDKit          3D

 42 45  0  0  1  0  0  0  0  0999 V2000
   14.2921   -3.9024    4.5881 C   0  0  0  0  0  0  0  0  0  0  0  0
   14.3884   -5.4112    4.6762 C   0  0  0  0  0  0  0  0  0  0  0  0
   14.8067   -5.9844    3.3337 C   0  0  0  0  0  0  0  0  0  0  0  0
   13.9058   -5.4768    2.2104 C   0  0  1  0  0  0  0  0  0  0  0  0
   12.5276   -6.1269    2.2422 C   0  0  2  0  0  0  0  0  0  0  0  0
   12.6167   -7.6204    2.0511 C   0  0  0  0  0  0  0  0  0  0  0  0
   12.1398   -8.4830    3.0275 C   0  0  0  0  0  0  0  0  0  0  0  0
   12.4177   -9.8445    2.9608 C   0  0  0  0  0  0  0  0  0  0  0  0
   13.1077  -10.3606    1.8722 C   0  0  0  0  0  0  0  0  0  0  0  0
   13.5047   -9.5126    0.8520 C   0  0  0  0  0  0  0  0  0  0  0  0
   13.2411   -8.1557    0.9292 C   0  0  0  0  0  0  0  0  0  0  0  0
   11.6817   -5.5681    1.1998 N   0  0  0  0  0  0  0  0  0  0  0  0
   11.7930   -4.2540    0.8178 C   0  0  0  0  0  0  0  0  0  0  0  0
   10.8417   -3.6900   -0.0535 C   0  0  0  0  0  0  0  0  0  0  0  0
   10.9491   -2.3761   -0.4505 C   0  0  0  0  0  0  0  0  0  0  0  0
   12.0104   -1.5745   -0.0415 C   0  0  0  0  0  0  0  0  0  0  0  0
   12.0886   -0.1551   -0.4915 C   0  0  0  0  0  0  0  0  0  0  0  0
   12.9548   -2.1430    0.7999 C   0  0  0  0  0  0  0  0  0  0  0  0
   12.8477   -3.4416    1.2656 C   0  0  0  0  0  0  0  0  0  0  0  0
   13.8162   -3.9595    2.2670 C   0  0  1  0  0  0  0  0  0  0  0  0
   13.4061   -3.4928    3.5601 O   0  0  0  0  0  0  0  0  0  0  0  0
   15.2963   -3.4809    4.4147 H   0  0  0  0  0  0  0  0  0  0  0  0
   13.4208   -5.8134    4.9811 H   0  0  0  0  0  0  0  0  0  0  0  0
   15.1048   -5.6836    5.4550 H   0  0  0  0  0  0  0  0  0  0  0  0
   14.7951   -7.0713    3.3549 H   0  0  0  0  0  0  0  0  0  0  0  0
   15.8351   -5.6817    3.1178 H   0  0  0  0  0  0  0  0  0  0  0  0
   14.3599   -5.7251    1.2506 H   0  0  0  0  0  0  0  0  0  0  0  0
   12.0784   -5.9364    3.2176 H   0  0  0  0  0  0  0  0  0  0  0  0
   11.5484   -8.1044    3.8470 H   0  0  0  0  0  0  0  0  0  0  0  0
   12.0927  -10.4869    3.7645 H   0  0  0  0  0  0  0  0  0  0  0  0
   13.3344  -11.4150    1.7937 H   0  0  0  0  0  0  0  0  0  0  0  0
   14.0065   -9.9324   -0.0065 H   0  0  0  0  0  0  0  0  0  0  0  0
   13.5033   -7.5085    0.1032 H   0  0  0  0  0  0  0  0  0  0  0  0
   10.7465   -5.9526    1.2025 H   0  0  0  0  0  0  0  0  0  0  0  0
    9.9932   -4.2807   -0.3748 H   0  0  0  0  0  0  0  0  0  0  0  0
   10.1878   -1.9397   -1.0861 H   0  0  0  0  0  0  0  0  0  0  0  0
   12.9370    0.3572   -0.0451 H   0  0  0  0  0  0  0  0  0  0  0  0
   13.8133   -1.5619    1.1065 H   0  0  0  0  0  0  0  0  0  0  0  0
   14.8149   -3.5559    2.0414 H   0  0  0  0  0  0  0  0  0  0  0  0
   11.1869    0.3882   -0.2138 H   0  0  0  0  0  0  0  0  0  0  0  0
   12.1813   -0.0919   -1.5768 H   0  0  0  0  0  0  0  0  0  0  0  0
   13.9089   -3.4701    5.5119 H   0  0  0  0  0  0  0  0  0  0  0  0
  1  2  1  0
  1 21  1  0
  1 22  1  0
  1 42  1  0
  2  3  1  0
  2 23  1  0
  2 24  1  0
  3  4  1  0
  3 25  1  0
  3 26  1  0
  4  5  1  0
  4 20  1  0
  4 27  1  6
  5  6  1  0
  5 12  1  0
  5 28  1  1
  6  7  2  0
  6 11  1  0
  7  8  1  0
  7 29  1  0
  8  9  2  0
  8 30  1  0
  9 10  1  0
  9 31  1  0
 10 11  2  0
 10 32  1  0
 11 33  1  0
 12 13  1  0
 12 34  1  0
 13 14  2  0
 13 19  1  0
 14 15  1  0
 14 35  1  0
 15 16  2  0
 15 36  1  0
 16 17  1  0
 16 18  1  0
 17 37  1  0
 17 40  1  0
 17 41  1  0
 18 19  2  0
 18 38  1  0
 19 20  1  0
 20 21  1  0
 20 39  1  6
M  END
>  <r_exp_dg>  (28) 
-8.75107

>  <mol_id>  (28) 
27

>  <source_index>  (28) 
27

>  <paff>  (28) 
6.4157439816382622

>  <source_r_exp_dg>  (28) 
-8.7510700000000003

>  <smiles>  (28) 
Cc1ccc2c(c1)[C@H]1OCCC[C@H]1[C@H](c1ccccc1)N2

>  <aimnet_interaction_kcal_mol>  (28) 
-44.089266583725262

$$$$
