L1:Q15059:10104
     RDKit          3D

 77 81  0  0  0  0  0  0  0  0999 V2000
   18.7124    7.0385   30.5154 C   0  0  0  0  0  0  0  0  0  0  0  0
   18.8343    7.7301   31.7099 C   0  0  0  0  0  0  0  0  0  0  0  0
   20.1971    8.0875   31.8390 C   0  0  0  0  0  0  0  0  0  0  0  0
   20.9246    8.8255   32.8543 C   0  0  0  0  0  0  0  0  0  0  0  0
   20.3625    9.2665   33.8518 O   0  0  0  0  0  0  0  0  0  0  0  0
   22.3013    8.9741   32.5812 N   0  0  0  0  0  0  0  0  0  0  0  0
   23.1304    9.7007   33.5296 C   0  0  0  0  0  0  0  0  0  0  0  0
   22.9127    8.4506   31.4349 C   0  0  0  0  0  0  0  0  0  0  0  0
   22.2442    7.7592   30.4874 C   0  0  0  0  0  0  0  0  0  0  0  0
   20.8542    7.5940   30.7304 C   0  0  0  0  0  0  0  0  0  0  0  0
   19.9506    6.9534   29.9347 O   0  0  0  0  0  0  0  0  0  0  0  0
   22.9593    7.2292   29.3136 C   0  0  0  0  0  0  0  0  0  0  0  0
   23.9493    6.2481   29.5168 C   0  0  0  0  0  0  0  0  0  0  0  0
   24.6611    5.6856   28.4427 C   0  0  0  0  0  0  0  0  0  0  0  0
   24.3446    6.1530   27.1562 C   0  0  0  0  0  0  0  0  0  0  0  0
   25.0075    5.6875   26.0866 F   0  0  0  0  0  0  0  0  0  0  0  0
   23.3616    7.1167   26.9330 C   0  0  0  0  0  0  0  0  0  0  0  0
   22.6529    7.6501   28.0095 C   0  0  0  0  0  0  0  0  0  0  0  0
   25.7349    4.6205   28.6308 C   0  0  0  0  0  0  0  0  0  0  0  0
   25.5069    3.3226   27.8393 C   0  0  0  0  0  0  0  0  0  0  0  0
   25.8947    4.2674   30.1183 C   0  0  0  0  0  0  0  0  0  0  0  0
   26.9662    5.1656   28.1418 O   0  0  0  0  0  0  0  0  0  0  0  0
   27.6886    4.5809   28.4248 H   0  0  0  0  0  0  0  0  0  0  0  0
   21.6731    8.6163   27.8712 O   0  0  0  0  0  0  0  0  0  0  0  0
   21.8268    9.5417   26.8607 C   0  0  0  0  0  0  0  0  0  0  0  0
   22.6254   10.6742   27.1155 C   0  0  0  0  0  0  0  0  0  0  0  0
   23.3243   10.8536   28.4321 C   0  0  0  0  0  0  0  0  0  0  0  0
   22.7863   11.6266   26.1022 C   0  0  0  0  0  0  0  0  0  0  0  0
   22.1374   11.4601   24.8839 C   0  0  0  0  0  0  0  0  0  0  0  0
   22.2976   12.3800   23.9235 F   0  0  0  0  0  0  0  0  0  0  0  0
   21.3164   10.3628   24.6480 C   0  0  0  0  0  0  0  0  0  0  0  0
   21.1330    9.3942   25.6433 C   0  0  0  0  0  0  0  0  0  0  0  0
   20.2169    8.2322   25.3827 C   0  0  0  0  0  0  0  0  0  0  0  0
   16.8918    6.8040   28.7221 C   0  0  0  0  0  0  0  0  0  0  0  0
   15.7664    6.0172   28.5770 N   0  0  0  0  0  0  0  0  0  0  0  0
   15.7391    5.2203   29.6216 C   0  0  0  0  0  0  0  0  0  0  0  0
   16.8086    5.4650   30.4432 N   0  0  0  0  0  0  0  0  0  0  0  0
   17.5471    6.4862   29.9009 C   0  0  0  0  0  0  0  0  0  0  0  0
   16.9998    4.9881   31.3119 H   0  0  0  0  0  0  0  0  0  0  0  0
   14.7126    4.1872   29.9267 C   0  0  0  0  0  0  0  0  0  0  0  0
   15.3445    2.9300   30.5020 C   0  0  0  0  0  0  0  0  0  0  0  0
   17.2196    7.8486   27.7039 C   0  0  0  0  0  0  0  0  0  0  0  0
   16.3537    9.7123   29.2067 C   0  0  0  0  0  0  0  0  0  0  0  0
   16.3777    9.1243   27.8022 C   0  0  0  0  0  0  0  0  0  0  0  0
   18.0765    7.9435   32.3772 H   0  0  0  0  0  0  0  0  0  0  0  0
   22.5268   10.0369   34.3466 H   0  0  0  0  0  0  0  0  0  0  0  0
   23.5736   10.5442   33.0428 H   0  0  0  0  0  0  0  0  0  0  0  0
   23.9009    9.0556   33.8972 H   0  0  0  0  0  0  0  0  0  0  0  0
   23.9258    8.6011   31.3081 H   0  0  0  0  0  0  0  0  0  0  0  0
   24.1573    5.9344   30.4777 H   0  0  0  0  0  0  0  0  0  0  0  0
   23.1587    7.4348   25.9725 H   0  0  0  0  0  0  0  0  0  0  0  0
   24.5952    2.8642   28.1610 H   0  0  0  0  0  0  0  0  0  0  0  0
   26.3231    2.6522   28.0108 H   0  0  0  0  0  0  0  0  0  0  0  0
   25.4438    3.5480   26.7952 H   0  0  0  0  0  0  0  0  0  0  0  0
   24.9774    3.8597   30.4886 H   0  0  0  0  0  0  0  0  0  0  0  0
   26.1409    5.1505   30.6700 H   0  0  0  0  0  0  0  0  0  0  0  0
   26.6770    3.5463   30.2317 H   0  0  0  0  0  0  0  0  0  0  0  0
   23.0853   10.0342   29.0773 H   0  0  0  0  0  0  0  0  0  0  0  0
   23.0037   11.7688   28.8843 H   0  0  0  0  0  0  0  0  0  0  0  0
   24.3819   10.8857   28.2730 H   0  0  0  0  0  0  0  0  0  0  0  0
   23.3861   12.4516   26.2594 H   0  0  0  0  0  0  0  0  0  0  0  0
   20.8411   10.2618   23.7376 H   0  0  0  0  0  0  0  0  0  0  0  0
   19.7987    8.3207   24.4018 H   0  0  0  0  0  0  0  0  0  0  0  0
   19.4295    8.2293   26.1072 H   0  0  0  0  0  0  0  0  0  0  0  0
   20.7701    7.3190   25.4535 H   0  0  0  0  0  0  0  0  0  0  0  0
   14.1940    3.9350   29.0254 H   0  0  0  0  0  0  0  0  0  0  0  0
   14.0376    4.5878   30.6539 H   0  0  0  0  0  0  0  0  0  0  0  0
   16.0242    2.5137   29.7881 H   0  0  0  0  0  0  0  0  0  0  0  0
   14.5793    2.2159   30.7245 H   0  0  0  0  0  0  0  0  0  0  0  0
   15.8748    3.1754   31.3984 H   0  0  0  0  0  0  0  0  0  0  0  0
   18.2483    8.1182   27.8222 H   0  0  0  0  0  0  0  0  0  0  0  0
   17.0047    7.4174   26.7485 H   0  0  0  0  0  0  0  0  0  0  0  0
   15.7527   10.5976   29.2125 H   0  0  0  0  0  0  0  0  0  0  0  0
   17.3509    9.9562   29.5084 H   0  0  0  0  0  0  0  0  0  0  0  0
   15.9406    8.9963   29.8861 H   0  0  0  0  0  0  0  0  0  0  0  0
   16.7844    9.8540   27.1336 H   0  0  0  0  0  0  0  0  0  0  0  0
   15.3717    8.8654   27.5455 H   0  0  0  0  0  0  0  0  0  0  0  0
  1  2  2  0
  2  3  1  0
  2 45  1  0
  3  4  1  0
  4  5  2  0
  4  6  1  0
  6  7  1  0
  6  8  1  0
  7 46  1  0
  7 47  1  0
  7 48  1  0
  8  9  2  0
  8 49  1  0
  9 12  1  0
  9 10  1  0
 10 11  1  0
 10  3  2  0
 11  1  1  0
 12 13  2  0
 13 14  1  0
 13 50  1  0
 14 19  1  0
 14 15  2  0
 15 16  1  0
 15 17  1  0
 17 18  2  0
 17 51  1  0
 18 24  1  0
 18 12  1  0
 19 20  1  0
 19 21  1  0
 19 22  1  0
 20 52  1  0
 20 53  1  0
 20 54  1  0
 21 55  1  0
 21 56  1  0
 21 57  1  0
 22 23  1  0
 24 25  1  0
 25 26  2  0
 26 27  1  0
 26 28  1  0
 27 58  1  0
 27 59  1  0
 27 60  1  0
 28 29  2  0
 28 61  1  0
 29 30  1  0
 29 31  1  0
 31 32  2  0
 31 62  1  0
 32 33  1  0
 32 25  1  0
 33 63  1  0
 33 64  1  0
 33 65  1  0
 34 35  1  0
 35 36  2  0
 36 40  1  0
 36 37  1  0
 37 38  1  0
 37 39  1  0
 38  1  1  0
 38 34  2  0
 40 41  1  0
 40 66  1  0
 40 67  1  0
 41 68  1  0
 41 69  1  0
 41 70  1  0
 42 34  1  0
 42 71  1  0
 42 72  1  0
 43 44  1  0
 43 73  1  0
 43 74  1  0
 43 75  1  0
 44 42  1  0
 44 76  1  0
 44 77  1  0
M  END
>  <minimizedAffinity>  (1) 
-8.03618

>  <mol_id>  (1) 
10104

>  <source_index>  (1) 
0

>  <layer>  (1) 
L1

>  <uniprot>  (1) 
Q15059

>  <paff>  (1) 
6.3705999999999996

>  <smiles>  (1) 
CCCc1nc(CC)[nH]c1-c1cc2c(=O)n(C)cc(-c3cc(C(C)(C)O)c(F)cc3Oc3c(C)cc(F)cc3C)c2o1

$$$$
L1:Q15059:18952
     RDKit          3D

 77 81  0  0  0  0  0  0  0  0999 V2000
   21.3435    7.5713   31.3363 C   0  0  0  0  0  0  0  0  0  0  0  0
   22.5299    6.9755   30.9477 C   0  0  0  0  0  0  0  0  0  0  0  0
   22.4604    6.7964   29.5457 C   0  0  0  0  0  0  0  0  0  0  0  0
   23.3862    6.2243   28.5869 C   0  0  0  0  0  0  0  0  0  0  0  0
   24.4803    5.7881   28.9303 O   0  0  0  0  0  0  0  0  0  0  0  0
   22.9115    6.2287   27.2573 N   0  0  0  0  0  0  0  0  0  0  0  0
   23.7606    5.6849   26.2097 C   0  0  0  0  0  0  0  0  0  0  0  0
   21.6631    6.7482   26.8946 C   0  0  0  0  0  0  0  0  0  0  0  0
   20.7971    7.2866   27.7797 C   0  0  0  0  0  0  0  0  0  0  0  0
   21.2427    7.2958   29.1299 C   0  0  0  0  0  0  0  0  0  0  0  0
   20.5707    7.7755   30.2176 O   0  0  0  0  0  0  0  0  0  0  0  0
   20.8781    9.1430   34.5206 C   0  0  0  0  0  0  0  0  0  0  0  0
   19.8867    8.2873   34.6380 N   0  0  0  0  0  0  0  0  0  0  0  0
   19.8577    7.5569   33.4644 C   0  0  0  0  0  0  0  0  0  0  0  0
   20.8806    7.9679   32.6267 C   0  0  0  0  0  0  0  0  0  0  0  0
   21.5008    8.9837   33.3117 N   0  0  0  0  0  0  0  0  0  0  0  0
   22.2922    9.5118   32.9722 H   0  0  0  0  0  0  0  0  0  0  0  0
   18.8137    6.4950   33.2763 C   0  0  0  0  0  0  0  0  0  0  0  0
   17.9110    6.8197   32.0852 C   0  0  0  0  0  0  0  0  0  0  0  0
   19.4276    5.1016   33.1087 C   0  0  0  0  0  0  0  0  0  0  0  0
   20.4728   11.4252   35.4754 C   0  0  0  0  0  0  0  0  0  0  0  0
   21.3261   10.1675   35.5061 C   0  0  0  0  0  0  0  0  0  0  0  0
   19.5025    7.8151   27.3156 C   0  0  0  0  0  0  0  0  0  0  0  0
   18.3504    7.5347   28.0739 C   0  0  0  0  0  0  0  0  0  0  0  0
   17.0838    7.9946   27.6790 C   0  0  0  0  0  0  0  0  0  0  0  0
   17.0012    8.7378   26.4873 C   0  0  0  0  0  0  0  0  0  0  0  0
   18.1368    9.0204   25.7228 C   0  0  0  0  0  0  0  0  0  0  0  0
   19.3898    8.5525   26.1258 C   0  0  0  0  0  0  0  0  0  0  0  0
   15.8113    7.6917   28.4684 C   0  0  0  0  0  0  0  0  0  0  0  0
   15.6133    8.5465   29.7272 C   0  0  0  0  0  0  0  0  0  0  0  0
   15.7642    6.2074   28.8462 C   0  0  0  0  0  0  0  0  0  0  0  0
   14.6790    7.9582   27.6297 O   0  0  0  0  0  0  0  0  0  0  0  0
   14.8223    8.8327   27.2279 H   0  0  0  0  0  0  0  0  0  0  0  0
   20.5561    8.8045   25.4256 O   0  0  0  0  0  0  0  0  0  0  0  0
   20.4422    9.3919   24.1837 C   0  0  0  0  0  0  0  0  0  0  0  0
   20.9825   10.6811   24.0084 C   0  0  0  0  0  0  0  0  0  0  0  0
   21.6540   11.4023   25.1414 C   0  0  0  0  0  0  0  0  0  0  0  0
   20.8949   11.2819   22.7470 C   0  0  0  0  0  0  0  0  0  0  0  0
   20.2966   10.6002   21.6933 C   0  0  0  0  0  0  0  0  0  0  0  0
   20.2146   11.1887   20.4929 F   0  0  0  0  0  0  0  0  0  0  0  0
   19.7940    9.3140   21.8587 C   0  0  0  0  0  0  0  0  0  0  0  0
   19.8792    8.6809   23.1054 C   0  0  0  0  0  0  0  0  0  0  0  0
   19.3695    7.2763   23.2594 C   0  0  0  0  0  0  0  0  0  0  0  0
   23.3156    6.7120   31.5627 H   0  0  0  0  0  0  0  0  0  0  0  0
   24.6737    5.3291   26.6394 H   0  0  0  0  0  0  0  0  0  0  0  0
   23.9776    6.4497   25.4936 H   0  0  0  0  0  0  0  0  0  0  0  0
   23.2553    4.8757   25.7252 H   0  0  0  0  0  0  0  0  0  0  0  0
   21.3907    6.7181   25.8996 H   0  0  0  0  0  0  0  0  0  0  0  0
   18.2223    6.4831   34.1679 H   0  0  0  0  0  0  0  0  0  0  0  0
   18.4948    6.8336   31.1886 H   0  0  0  0  0  0  0  0  0  0  0  0
   17.4588    7.7784   32.2313 H   0  0  0  0  0  0  0  0  0  0  0  0
   17.1479    6.0743   32.0024 H   0  0  0  0  0  0  0  0  0  0  0  0
   20.0272    5.0802   32.2228 H   0  0  0  0  0  0  0  0  0  0  0  0
   18.6463    4.3750   33.0282 H   0  0  0  0  0  0  0  0  0  0  0  0
   20.0381    4.8763   33.9581 H   0  0  0  0  0  0  0  0  0  0  0  0
   20.8388   12.1223   36.2000 H   0  0  0  0  0  0  0  0  0  0  0  0
   19.4581   11.1735   35.7034 H   0  0  0  0  0  0  0  0  0  0  0  0
   20.5209   11.8651   34.5012 H   0  0  0  0  0  0  0  0  0  0  0  0
   21.2755    9.7436   36.4872 H   0  0  0  0  0  0  0  0  0  0  0  0
   22.3254   10.4491   35.2472 H   0  0  0  0  0  0  0  0  0  0  0  0
   18.4385    6.9790   28.9390 H   0  0  0  0  0  0  0  0  0  0  0  0
   16.0814    9.0821   26.1704 H   0  0  0  0  0  0  0  0  0  0  0  0
   18.0492    9.5765   24.8579 H   0  0  0  0  0  0  0  0  0  0  0  0
   16.4327    8.3899   30.3972 H   0  0  0  0  0  0  0  0  0  0  0  0
   14.7000    8.2658   30.2089 H   0  0  0  0  0  0  0  0  0  0  0  0
   15.5691    9.5799   29.4533 H   0  0  0  0  0  0  0  0  0  0  0  0
   16.5980    5.9726   29.4744 H   0  0  0  0  0  0  0  0  0  0  0  0
   15.8077    5.6118   27.9583 H   0  0  0  0  0  0  0  0  0  0  0  0
   14.8540    6.0013   29.3697 H   0  0  0  0  0  0  0  0  0  0  0  0
   21.6248   10.7921   26.0198 H   0  0  0  0  0  0  0  0  0  0  0  0
   21.1437   12.3237   25.3301 H   0  0  0  0  0  0  0  0  0  0  0  0
   22.6720   11.6051   24.8817 H   0  0  0  0  0  0  0  0  0  0  0  0
   21.2742   12.2302   22.5993 H   0  0  0  0  0  0  0  0  0  0  0  0
   19.3575    8.8251   21.0615 H   0  0  0  0  0  0  0  0  0  0  0  0
   18.9869    6.9309   22.3217 H   0  0  0  0  0  0  0  0  0  0  0  0
   18.5893    7.2582   23.9914 H   0  0  0  0  0  0  0  0  0  0  0  0
   20.1693    6.6392   23.5747 H   0  0  0  0  0  0  0  0  0  0  0  0
  1  2  2  0
  2  3  1  0
  2 44  1  0
  3  4  1  0
  4  5  2  0
  4  6  1  0
  6  7  1  0
  6  8  1  0
  7 45  1  0
  7 46  1  0
  7 47  1  0
  8  9  2  0
  8 48  1  0
  9 23  1  0
  9 10  1  0
 10 11  1  0
 10  3  2  0
 11  1  1  0
 12 13  2  0
 13 14  1  0
 14 18  1  0
 14 15  2  0
 15  1  1  0
 15 16  1  0
 16 12  1  0
 16 17  1  0
 18 19  1  0
 18 20  1  0
 18 49  1  0
 19 50  1  0
 19 51  1  0
 19 52  1  0
 20 53  1  0
 20 54  1  0
 20 55  1  0
 21 22  1  0
 21 56  1  0
 21 57  1  0
 21 58  1  0
 22 12  1  0
 22 59  1  0
 22 60  1  0
 23 24  2  0
 24 25  1  0
 24 61  1  0
 25 29  1  0
 25 26  2  0
 26 27  1  0
 26 62  1  0
 27 28  2  0
 27 63  1  0
 28 34  1  0
 28 23  1  0
 29 30  1  0
 29 31  1  0
 29 32  1  0
 30 64  1  0
 30 65  1  0
 30 66  1  0
 31 67  1  0
 31 68  1  0
 31 69  1  0
 32 33  1  0
 34 35  1  0
 35 36  2  0
 36 37  1  0
 36 38  1  0
 37 70  1  0
 37 71  1  0
 37 72  1  0
 38 39  2  0
 38 73  1  0
 39 40  1  0
 39 41  1  0
 41 42  2  0
 41 74  1  0
 42 43  1  0
 42 35  1  0
 43 75  1  0
 43 76  1  0
 43 77  1  0
M  END
>  <minimizedAffinity>  (2) 
-9.10995

>  <mol_id>  (2) 
18952

>  <source_index>  (2) 
1

>  <layer>  (2) 
L1

>  <uniprot>  (2) 
Q15059

>  <paff>  (2) 
6.3644999999999996

>  <smiles>  (2) 
CCc1nc(C(C)C)c(-c2cc3c(=O)n(C)cc(-c4cc(C(C)(C)O)ccc4Oc4c(C)cc(F)cc4C)c3o2)[nH]1

$$$$
L1:Q15059:25231
     RDKit          3D

 72 77  0  0  0  0  0  0  0  0999 V2000
   19.9710    8.8161   25.4638 C   0  0  0  0  0  0  0  0  0  0  0  0
   18.6484    9.2681   25.4791 C   0  0  0  0  0  0  0  0  0  0  0  0
   17.8247    9.0069   26.5789 C   0  0  0  0  0  0  0  0  0  0  0  0
   18.2966    8.2841   27.6874 C   0  0  0  0  0  0  0  0  0  0  0  0
   19.6372    7.8563   27.6656 C   0  0  0  0  0  0  0  0  0  0  0  0
   20.4801    8.1200   26.5720 C   0  0  0  0  0  0  0  0  0  0  0  0
   21.8673    7.6219   26.6078 C   0  0  0  0  0  0  0  0  0  0  0  0
   22.1078    6.3053   26.7876 C   0  0  0  0  0  0  0  0  0  0  0  0
   23.3942    5.7559   26.8430 N   0  0  0  0  0  0  0  0  0  0  0  0
   23.5200    4.3236   27.0578 C   0  0  0  0  0  0  0  0  0  0  0  0
   24.5665    6.5319   26.7266 C   0  0  0  0  0  0  0  0  0  0  0  0
   25.7051    6.0782   26.7819 O   0  0  0  0  0  0  0  0  0  0  0  0
   24.3205    7.9481   26.5316 C   0  0  0  0  0  0  0  0  0  0  0  0
   25.1897    9.0543   26.3815 C   0  0  0  0  0  0  0  0  0  0  0  0
   24.3904   10.1742   26.2406 C   0  0  0  0  0  0  0  0  0  0  0  0
   23.0747    9.7848   26.2909 O   0  0  0  0  0  0  0  0  0  0  0  0
   23.0284    8.4320   26.4735 C   0  0  0  0  0  0  0  0  0  0  0  0
   24.7471   11.5443   26.0748 C   0  0  0  0  0  0  0  0  0  0  0  0
   25.3963   11.9828   24.9482 N   0  0  0  0  0  0  0  0  0  0  0  0
   25.5841   13.3304   25.0608 C   0  0  0  0  0  0  0  0  0  0  0  0
   25.1047   13.7805   26.1981 N   0  0  0  0  0  0  0  0  0  0  0  0
   24.5774   12.6812   26.8439 C   0  0  0  0  0  0  0  0  0  0  0  0
   23.9342   12.8480   28.1661 C   0  0  0  0  0  0  0  0  0  0  0  0
   25.6736   11.4011   24.1708 H   0  0  0  0  0  0  0  0  0  0  0  0
   26.2543   14.2219   23.9758 C   0  0  0  0  0  0  0  0  0  0  0  0
   27.7094   14.5749   24.1425 C   0  0  0  0  0  0  0  0  0  0  0  0
   27.2886   13.6207   23.0617 C   0  0  0  0  0  0  0  0  0  0  0  0
   17.4018    8.0095   28.8951 C   0  0  0  0  0  0  0  0  0  0  0  0
   16.7716    9.2866   29.4657 C   0  0  0  0  0  0  0  0  0  0  0  0
   18.2001    7.2695   29.9745 C   0  0  0  0  0  0  0  0  0  0  0  0
   16.3146    7.1623   28.4993 O   0  0  0  0  0  0  0  0  0  0  0  0
   15.8017    6.9445   29.2962 H   0  0  0  0  0  0  0  0  0  0  0  0
   20.8368    9.0595   24.4128 O   0  0  0  0  0  0  0  0  0  0  0  0
   21.4608   11.5188   23.1348 C   0  0  0  0  0  0  0  0  0  0  0  0
   20.5898   10.4729   22.5008 C   0  0  0  0  0  0  0  0  0  0  0  0
   20.0283   10.7045   21.2397 C   0  0  0  0  0  0  0  0  0  0  0  0
   19.2192    9.7383   20.6517 C   0  0  0  0  0  0  0  0  0  0  0  0
   18.6891    9.9725   19.4437 F   0  0  0  0  0  0  0  0  0  0  0  0
   18.9592    8.5298   21.2890 C   0  0  0  0  0  0  0  0  0  0  0  0
   19.5056    8.2694   22.5525 C   0  0  0  0  0  0  0  0  0  0  0  0
   19.2478    6.9448   23.2124 C   0  0  0  0  0  0  0  0  0  0  0  0
   20.2833    9.2701   23.1680 C   0  0  0  0  0  0  0  0  0  0  0  0
   18.2776    9.7974   24.6745 H   0  0  0  0  0  0  0  0  0  0  0  0
   16.8520    9.3516   26.5761 H   0  0  0  0  0  0  0  0  0  0  0  0
   20.0114    7.3352   28.4740 H   0  0  0  0  0  0  0  0  0  0  0  0
   21.3005    5.6705   26.8896 H   0  0  0  0  0  0  0  0  0  0  0  0
   22.5458    3.8859   27.1235 H   0  0  0  0  0  0  0  0  0  0  0  0
   24.0534    4.1449   27.9680 H   0  0  0  0  0  0  0  0  0  0  0  0
   24.0534    3.8858   26.2400 H   0  0  0  0  0  0  0  0  0  0  0  0
   26.2214    9.0302   26.3779 H   0  0  0  0  0  0  0  0  0  0  0  0
   23.9856   13.8754   28.4607 H   0  0  0  0  0  0  0  0  0  0  0  0
   24.4422   12.2440   28.8886 H   0  0  0  0  0  0  0  0  0  0  0  0
   22.9097   12.5453   28.1051 H   0  0  0  0  0  0  0  0  0  0  0  0
   25.3473   14.7696   23.8268 H   0  0  0  0  0  0  0  0  0  0  0  0
   28.2531   14.2157   24.9912 H   0  0  0  0  0  0  0  0  0  0  0  0
   28.2679   15.4872   24.1706 H   0  0  0  0  0  0  0  0  0  0  0  0
   27.5329   12.5820   23.1407 H   0  0  0  0  0  0  0  0  0  0  0  0
   27.4237   13.5724   22.0014 H   0  0  0  0  0  0  0  0  0  0  0  0
   17.5448    9.9571   29.7779 H   0  0  0  0  0  0  0  0  0  0  0  0
   16.1561    9.0366   30.3045 H   0  0  0  0  0  0  0  0  0  0  0  0
   16.1744    9.7568   28.7126 H   0  0  0  0  0  0  0  0  0  0  0  0
   19.0210    7.8783   30.2913 H   0  0  0  0  0  0  0  0  0  0  0  0
   18.5719    6.3491   29.5751 H   0  0  0  0  0  0  0  0  0  0  0  0
   17.5646    7.0646   30.8106 H   0  0  0  0  0  0  0  0  0  0  0  0
   21.5677   12.3472   22.4660 H   0  0  0  0  0  0  0  0  0  0  0  0
   22.4240   11.1022   23.3434 H   0  0  0  0  0  0  0  0  0  0  0  0
   21.0113   11.8523   24.0467 H   0  0  0  0  0  0  0  0  0  0  0  0
   20.2146   11.5917   20.7466 H   0  0  0  0  0  0  0  0  0  0  0  0
   18.3627    7.8235   20.8303 H   0  0  0  0  0  0  0  0  0  0  0  0
   18.6383    6.3406   22.5734 H   0  0  0  0  0  0  0  0  0  0  0  0
   18.7429    7.1020   24.1426 H   0  0  0  0  0  0  0  0  0  0  0  0
   20.1786    6.4483   23.3913 H   0  0  0  0  0  0  0  0  0  0  0  0
  1  2  2  0
  2  3  1  0
  2 43  1  0
  3  4  2  0
  3 44  1  0
  4 28  1  0
  4  5  1  0
  5  6  2  0
  5 45  1  0
  6  7  1  0
  6  1  1  0
  7  8  2  0
  8  9  1  0
  8 46  1  0
  9 10  1  0
  9 11  1  0
 10 47  1  0
 10 48  1  0
 10 49  1  0
 11 12  2  0
 11 13  1  0
 13 14  1  0
 14 15  2  0
 14 50  1  0
 15 18  1  0
 15 16  1  0
 16 17  1  0
 17  7  1  0
 17 13  2  0
 18 19  1  0
 19 20  1  0
 19 24  1  0
 20 25  1  0
 20 21  2  0
 21 22  1  0
 22 23  1  0
 22 18  2  0
 23 51  1  0
 23 52  1  0
 23 53  1  0
 25 26  1  0
 25 54  1  0
 26 27  1  0
 26 55  1  0
 26 56  1  0
 27 25  1  0
 27 57  1  0
 27 58  1  0
 28 29  1  0
 28 30  1  0
 28 31  1  0
 29 59  1  0
 29 60  1  0
 29 61  1  0
 30 62  1  0
 30 63  1  0
 30 64  1  0
 31 32  1  0
 33  1  1  0
 34 35  1  0
 34 65  1  0
 34 66  1  0
 34 67  1  0
 35 36  2  0
 36 37  1  0
 36 68  1  0
 37 38  1  0
 37 39  2  0
 39 40  1  0
 39 69  1  0
 40 41  1  0
 40 42  2  0
 41 70  1  0
 41 71  1  0
 41 72  1  0
 42 33  1  0
 42 35  1  0
M  END
>  <minimizedAffinity>  (3) 
-8.97813

>  <mol_id>  (3) 
25231

>  <source_index>  (3) 
2

>  <layer>  (3) 
L1

>  <uniprot>  (3) 
Q15059

>  <paff>  (3) 
8

>  <smiles>  (3) 
Cc1cc(F)cc(C)c1Oc1ccc(C(C)(C)O)cc1-c1cn(C)c(=O)c2cc(-c3[nH]c(C4CC4)nc3C)oc12

$$$$
L1:Q15059:48671
     RDKit          3D

 77 81  0  0  0  0  0  0  0  0999 V2000
   18.2511    7.0098   30.5782 C   0  0  0  0  0  0  0  0  0  0  0  0
   18.4525    7.7077   31.7552 C   0  0  0  0  0  0  0  0  0  0  0  0
   19.8333    8.0058   31.8248 C   0  0  0  0  0  0  0  0  0  0  0  0
   20.6288    8.7218   32.8029 C   0  0  0  0  0  0  0  0  0  0  0  0
   20.1266    9.2050   33.8128 O   0  0  0  0  0  0  0  0  0  0  0  0
   22.0014    8.7990   32.4823 N   0  0  0  0  0  0  0  0  0  0  0  0
   22.8967    9.4899   33.3958 C   0  0  0  0  0  0  0  0  0  0  0  0
   22.5403    8.2630   31.3072 C   0  0  0  0  0  0  0  0  0  0  0  0
   21.8030    7.6184   30.3773 C   0  0  0  0  0  0  0  0  0  0  0  0
   20.4222    7.4826   30.6907 C   0  0  0  0  0  0  0  0  0  0  0  0
   19.4627    6.8561   29.9471 O   0  0  0  0  0  0  0  0  0  0  0  0
   22.4559    7.1041   29.1630 C   0  0  0  0  0  0  0  0  0  0  0  0
   23.5227    6.1999   29.3524 C   0  0  0  0  0  0  0  0  0  0  0  0
   24.2722    5.6888   28.2760 C   0  0  0  0  0  0  0  0  0  0  0  0
   23.9264    6.1289   26.9942 C   0  0  0  0  0  0  0  0  0  0  0  0
   24.6176    5.7065   25.9265 F   0  0  0  0  0  0  0  0  0  0  0  0
   22.8757    7.0163   26.7799 C   0  0  0  0  0  0  0  0  0  0  0  0
   22.1174    7.4902   27.8546 C   0  0  0  0  0  0  0  0  0  0  0  0
   25.4336    4.7266   28.4950 C   0  0  0  0  0  0  0  0  0  0  0  0
   26.7995    5.3980   28.2889 C   0  0  0  0  0  0  0  0  0  0  0  0
   25.3544    4.0951   29.8899 C   0  0  0  0  0  0  0  0  0  0  0  0
   25.3317    3.6342   27.5681 O   0  0  0  0  0  0  0  0  0  0  0  0
   25.9818    3.7689   26.8584 H   0  0  0  0  0  0  0  0  0  0  0  0
   21.1286    8.3831   27.4918 O   0  0  0  0  0  0  0  0  0  0  0  0
   21.4016    9.3381   26.5347 C   0  0  0  0  0  0  0  0  0  0  0  0
   22.2996   10.4039   26.7548 C   0  0  0  0  0  0  0  0  0  0  0  0
   23.0389   10.5987   28.0468 C   0  0  0  0  0  0  0  0  0  0  0  0
   22.5243   11.3195   25.7141 C   0  0  0  0  0  0  0  0  0  0  0  0
   21.8293   11.2066   24.5168 C   0  0  0  0  0  0  0  0  0  0  0  0
   22.0491   12.0967   23.5406 F   0  0  0  0  0  0  0  0  0  0  0  0
   20.8908   10.2022   24.3264 C   0  0  0  0  0  0  0  0  0  0  0  0
   20.6612    9.2568   25.3350 C   0  0  0  0  0  0  0  0  0  0  0  0
   19.5863    8.2256   25.1317 C   0  0  0  0  0  0  0  0  0  0  0  0
   16.3206    6.7989   28.8622 C   0  0  0  0  0  0  0  0  0  0  0  0
   15.2285    5.9598   28.7633 N   0  0  0  0  0  0  0  0  0  0  0  0
   15.2815    5.1617   29.8079 C   0  0  0  0  0  0  0  0  0  0  0  0
   16.3701    5.4621   30.5828 N   0  0  0  0  0  0  0  0  0  0  0  0
   17.0517    6.5001   29.9977 C   0  0  0  0  0  0  0  0  0  0  0  0
   16.6456    4.9997   31.4373 H   0  0  0  0  0  0  0  0  0  0  0  0
   14.3278    4.0594   30.1504 C   0  0  0  0  0  0  0  0  0  0  0  0
   13.3588    3.8069   28.9964 C   0  0  0  0  0  0  0  0  0  0  0  0
   15.0926    2.7840   30.5044 C   0  0  0  0  0  0  0  0  0  0  0  0
   16.3487    9.2391   28.3178 C   0  0  0  0  0  0  0  0  0  0  0  0
   16.5424    7.8212   27.8030 C   0  0  0  0  0  0  0  0  0  0  0  0
   17.7329    7.9622   32.4498 H   0  0  0  0  0  0  0  0  0  0  0  0
   22.3425    9.8408   34.2412 H   0  0  0  0  0  0  0  0  0  0  0  0
   23.3463   10.3212   32.8941 H   0  0  0  0  0  0  0  0  0  0  0  0
   23.6603    8.8163   33.7245 H   0  0  0  0  0  0  0  0  0  0  0  0
   23.5539    8.3657   31.1427 H   0  0  0  0  0  0  0  0  0  0  0  0
   23.7613    5.9036   30.3117 H   0  0  0  0  0  0  0  0  0  0  0  0
   22.6548    7.3267   25.8208 H   0  0  0  0  0  0  0  0  0  0  0  0
   26.9005    6.2174   28.9696 H   0  0  0  0  0  0  0  0  0  0  0  0
   26.8719    5.7581   27.2839 H   0  0  0  0  0  0  0  0  0  0  0  0
   27.5777    4.6862   28.4696 H   0  0  0  0  0  0  0  0  0  0  0  0
   25.4249    4.8617   30.6330 H   0  0  0  0  0  0  0  0  0  0  0  0
   26.1606    3.4026   30.0142 H   0  0  0  0  0  0  0  0  0  0  0  0
   24.4224    3.5803   29.9959 H   0  0  0  0  0  0  0  0  0  0  0  0
   22.7634    9.8272   28.7352 H   0  0  0  0  0  0  0  0  0  0  0  0
   22.7878   11.5527   28.4611 H   0  0  0  0  0  0  0  0  0  0  0  0
   24.0924   10.5550   27.8650 H   0  0  0  0  0  0  0  0  0  0  0  0
   23.2098   12.0807   25.8396 H   0  0  0  0  0  0  0  0  0  0  0  0
   20.3618   10.1515   23.4417 H   0  0  0  0  0  0  0  0  0  0  0  0
   19.1578    8.3441   24.1584 H   0  0  0  0  0  0  0  0  0  0  0  0
   18.8260    8.3518   25.8739 H   0  0  0  0  0  0  0  0  0  0  0  0
   20.0101    7.2469   25.2181 H   0  0  0  0  0  0  0  0  0  0  0  0
   13.7568    4.3584   31.0045 H   0  0  0  0  0  0  0  0  0  0  0  0
   13.9080    3.5059   28.1289 H   0  0  0  0  0  0  0  0  0  0  0  0
   12.8176    4.7047   28.7822 H   0  0  0  0  0  0  0  0  0  0  0  0
   12.6722    3.0332   29.2700 H   0  0  0  0  0  0  0  0  0  0  0  0
   15.6706    2.4690   29.6609 H   0  0  0  0  0  0  0  0  0  0  0  0
   14.3986    2.0137   30.7689 H   0  0  0  0  0  0  0  0  0  0  0  0
   15.7439    2.9765   31.3312 H   0  0  0  0  0  0  0  0  0  0  0  0
   16.5186    9.9338   27.5220 H   0  0  0  0  0  0  0  0  0  0  0  0
   17.0418    9.4285   29.1107 H   0  0  0  0  0  0  0  0  0  0  0  0
   15.3494    9.3526   28.6830 H   0  0  0  0  0  0  0  0  0  0  0  0
   17.5420    7.7229   27.4341 H   0  0  0  0  0  0  0  0  0  0  0  0
   15.8217    7.6528   27.0303 H   0  0  0  0  0  0  0  0  0  0  0  0
  1  2  2  0
  2  3  1  0
  2 45  1  0
  3  4  1  0
  4  5  2  0
  4  6  1  0
  6  7  1  0
  6  8  1  0
  7 46  1  0
  7 47  1  0
  7 48  1  0
  8  9  2  0
  8 49  1  0
  9 12  1  0
  9 10  1  0
 10 11  1  0
 10  3  2  0
 11  1  1  0
 12 13  2  0
 13 14  1  0
 13 50  1  0
 14 19  1  0
 14 15  2  0
 15 16  1  0
 15 17  1  0
 17 18  2  0
 17 51  1  0
 18 24  1  0
 18 12  1  0
 19 20  1  0
 19 21  1  0
 19 22  1  0
 20 52  1  0
 20 53  1  0
 20 54  1  0
 21 55  1  0
 21 56  1  0
 21 57  1  0
 22 23  1  0
 24 25  1  0
 25 26  2  0
 26 27  1  0
 26 28  1  0
 27 58  1  0
 27 59  1  0
 27 60  1  0
 28 29  2  0
 28 61  1  0
 29 30  1  0
 29 31  1  0
 31 32  2  0
 31 62  1  0
 32 33  1  0
 32 25  1  0
 33 63  1  0
 33 64  1  0
 33 65  1  0
 34 35  1  0
 35 36  2  0
 36 40  1  0
 36 37  1  0
 37 38  1  0
 37 39  1  0
 38  1  1  0
 38 34  2  0
 40 41  1  0
 40 42  1  0
 40 66  1  0
 41 67  1  0
 41 68  1  0
 41 69  1  0
 42 70  1  0
 42 71  1  0
 42 72  1  0
 43 44  1  0
 43 73  1  0
 43 74  1  0
 43 75  1  0
 44 34  1  0
 44 76  1  0
 44 77  1  0
M  END
>  <minimizedAffinity>  (4) 
-8.20062

>  <mol_id>  (4) 
48671

>  <source_index>  (4) 
3

>  <layer>  (4) 
L1

>  <uniprot>  (4) 
Q15059

>  <paff>  (4) 
6.8632999999999997

>  <smiles>  (4) 
CCc1nc(C(C)C)[nH]c1-c1cc2c(=O)n(C)cc(-c3cc(C(C)(C)O)c(F)cc3Oc3c(C)cc(F)cc3C)c2o1

$$$$
L1:Q15059:53300
     RDKit          3D

 81 86  0  0  0  0  0  0  0  0999 V2000
   18.5752    7.0434   30.5730 C   0  0  0  0  0  0  0  0  0  0  0  0
   18.7390    7.7790   31.7353 C   0  0  0  0  0  0  0  0  0  0  0  0
   20.1127    8.1080   31.8207 C   0  0  0  0  0  0  0  0  0  0  0  0
   20.8785    8.8591   32.7965 C   0  0  0  0  0  0  0  0  0  0  0  0
   20.3470    9.3509   33.7873 O   0  0  0  0  0  0  0  0  0  0  0  0
   22.2531    8.9597   32.4950 N   0  0  0  0  0  0  0  0  0  0  0  0
   23.1180    9.6980   33.4012 C   0  0  0  0  0  0  0  0  0  0  0  0
   22.8259    8.3926   31.3500 C   0  0  0  0  0  0  0  0  0  0  0  0
   22.1215    7.6914   30.4359 C   0  0  0  0  0  0  0  0  0  0  0  0
   20.7332    7.5631   30.7143 C   0  0  0  0  0  0  0  0  0  0  0  0
   19.7969    6.9138   29.9632 O   0  0  0  0  0  0  0  0  0  0  0  0
   16.7096    6.7470   28.8424 C   0  0  0  0  0  0  0  0  0  0  0  0
   15.5978    5.9390   28.7321 N   0  0  0  0  0  0  0  0  0  0  0  0
   15.5857    5.1845   29.8101 C   0  0  0  0  0  0  0  0  0  0  0  0
   16.6567    5.4809   30.6152 N   0  0  0  0  0  0  0  0  0  0  0  0
   17.3874    6.4768   30.0181 C   0  0  0  0  0  0  0  0  0  0  0  0
   16.8639    5.0402   31.4991 H   0  0  0  0  0  0  0  0  0  0  0  0
   14.5796    4.1467   30.1691 C   0  0  0  0  0  0  0  0  0  0  0  0
   13.5160    3.9530   29.0863 C   0  0  0  0  0  0  0  0  0  0  0  0
   13.0443    2.5039   29.2245 C   0  0  0  0  0  0  0  0  0  0  0  0
   13.9697    1.8445   30.2432 C   0  0  0  0  0  0  0  0  0  0  0  0
   15.1866    2.7537   30.3130 C   0  0  0  0  0  0  0  0  0  0  0  0
   16.6017    9.1463   28.1402 C   0  0  0  0  0  0  0  0  0  0  0  0
   17.0151    7.7315   27.7671 C   0  0  0  0  0  0  0  0  0  0  0  0
   22.8032    7.1263   29.2589 C   0  0  0  0  0  0  0  0  0  0  0  0
   23.7846    6.1404   29.4538 C   0  0  0  0  0  0  0  0  0  0  0  0
   24.4685    5.5480   28.3728 C   0  0  0  0  0  0  0  0  0  0  0  0
   24.1341    5.9739   27.0801 C   0  0  0  0  0  0  0  0  0  0  0  0
   23.1556    6.9530   26.8715 C   0  0  0  0  0  0  0  0  0  0  0  0
   22.4777    7.5230   27.9534 C   0  0  0  0  0  0  0  0  0  0  0  0
   25.5166    4.4715   28.6494 C   0  0  0  0  0  0  0  0  0  0  0  0
   25.6061    4.1814   30.1516 C   0  0  0  0  0  0  0  0  0  0  0  0
   25.3067    3.1534   27.8919 C   0  0  0  0  0  0  0  0  0  0  0  0
   26.7948    4.9688   28.2287 O   0  0  0  0  0  0  0  0  0  0  0  0
   26.6629    5.3981   27.3661 H   0  0  0  0  0  0  0  0  0  0  0  0
   21.5067    8.4982   27.8125 O   0  0  0  0  0  0  0  0  0  0  0  0
   21.6538    9.4039   26.7842 C   0  0  0  0  0  0  0  0  0  0  0  0
   22.5006   10.5099   26.9933 C   0  0  0  0  0  0  0  0  0  0  0  0
   23.2497   10.6825   28.2830 C   0  0  0  0  0  0  0  0  0  0  0  0
   22.6638   11.4381   25.9584 C   0  0  0  0  0  0  0  0  0  0  0  0
   21.9703   11.2761   24.7643 C   0  0  0  0  0  0  0  0  0  0  0  0
   22.1361   12.1710   23.7817 F   0  0  0  0  0  0  0  0  0  0  0  0
   21.1009   10.2075   24.5751 C   0  0  0  0  0  0  0  0  0  0  0  0
   20.9142    9.2639   25.5935 C   0  0  0  0  0  0  0  0  0  0  0  0
   19.9510    8.1305   25.3844 C   0  0  0  0  0  0  0  0  0  0  0  0
   18.0013    8.0373   32.4092 H   0  0  0  0  0  0  0  0  0  0  0  0
   22.5409   10.0683   34.2226 H   0  0  0  0  0  0  0  0  0  0  0  0
   23.5635   10.5191   32.8794 H   0  0  0  0  0  0  0  0  0  0  0  0
   23.8861    9.0499   33.7685 H   0  0  0  0  0  0  0  0  0  0  0  0
   23.8389    8.5170   31.1968 H   0  0  0  0  0  0  0  0  0  0  0  0
   14.1730    4.5149   31.0878 H   0  0  0  0  0  0  0  0  0  0  0  0
   13.9367    4.1176   28.1163 H   0  0  0  0  0  0  0  0  0  0  0  0
   12.7071    4.6443   29.1989 H   0  0  0  0  0  0  0  0  0  0  0  0
   13.1128    2.0011   28.2825 H   0  0  0  0  0  0  0  0  0  0  0  0
   12.0232    2.4570   29.5408 H   0  0  0  0  0  0  0  0  0  0  0  0
   14.2502    0.8645   29.9179 H   0  0  0  0  0  0  0  0  0  0  0  0
   13.4997    1.7269   31.1972 H   0  0  0  0  0  0  0  0  0  0  0  0
   15.8684    2.5464   29.5148 H   0  0  0  0  0  0  0  0  0  0  0  0
   15.7550    2.6310   31.2112 H   0  0  0  0  0  0  0  0  0  0  0  0
   16.8420    9.8115   27.3373 H   0  0  0  0  0  0  0  0  0  0  0  0
   17.1244    9.4495   29.0232 H   0  0  0  0  0  0  0  0  0  0  0  0
   15.5477    9.1735   28.3226 H   0  0  0  0  0  0  0  0  0  0  0  0
   18.0685    7.7197   27.5799 H   0  0  0  0  0  0  0  0  0  0  0  0
   16.4586    7.4480   26.8983 H   0  0  0  0  0  0  0  0  0  0  0  0
   24.0113    5.8414   30.4152 H   0  0  0  0  0  0  0  0  0  0  0  0
   24.6174    5.5587   26.2683 H   0  0  0  0  0  0  0  0  0  0  0  0
   22.9326    7.2568   25.9107 H   0  0  0  0  0  0  0  0  0  0  0  0
   24.6658    3.8075   30.4993 H   0  0  0  0  0  0  0  0  0  0  0  0
   25.8471    5.0829   30.6752 H   0  0  0  0  0  0  0  0  0  0  0  0
   26.3679    3.4513   30.3291 H   0  0  0  0  0  0  0  0  0  0  0  0
   24.3625    2.7310   28.1659 H   0  0  0  0  0  0  0  0  0  0  0  0
   26.0899    2.4690   28.1431 H   0  0  0  0  0  0  0  0  0  0  0  0
   25.3213    3.3411   26.8386 H   0  0  0  0  0  0  0  0  0  0  0  0
   23.0006    9.8836   28.9498 H   0  0  0  0  0  0  0  0  0  0  0  0
   22.9805   11.6168   28.7296 H   0  0  0  0  0  0  0  0  0  0  0  0
   24.3018   10.6701   28.0888 H   0  0  0  0  0  0  0  0  0  0  0  0
   23.2986   12.2424   26.0817 H   0  0  0  0  0  0  0  0  0  0  0  0
   20.5922   10.1094   23.6826 H   0  0  0  0  0  0  0  0  0  0  0  0
   19.5016    8.2182   24.4173 H   0  0  0  0  0  0  0  0  0  0  0  0
   19.1901    8.1659   26.1358 H   0  0  0  0  0  0  0  0  0  0  0  0
   20.4752    7.2001   25.4511 H   0  0  0  0  0  0  0  0  0  0  0  0
  1  2  2  0
  2  3  1  0
  2 46  1  0
  3  4  1  0
  4  5  2  0
  4  6  1  0
  6  7  1  0
  6  8  1  0
  7 47  1  0
  7 48  1  0
  7 49  1  0
  8  9  2  0
  8 50  1  0
  9 25  1  0
  9 10  1  0
 10 11  1  0
 10  3  2  0
 11  1  1  0
 12 13  1  0
 13 14  2  0
 14 18  1  0
 14 15  1  0
 15 16  1  0
 15 17  1  0
 16  1  1  0
 16 12  2  0
 18 19  1  0
 18 51  1  0
 19 20  1  0
 19 52  1  0
 19 53  1  0
 20 21  1  0
 20 54  1  0
 20 55  1  0
 21 22  1  0
 21 56  1  0
 21 57  1  0
 22 18  1  0
 22 58  1  0
 22 59  1  0
 23 24  1  0
 23 60  1  0
 23 61  1  0
 23 62  1  0
 24 12  1  0
 24 63  1  0
 24 64  1  0
 25 26  2  0
 26 27  1  0
 26 65  1  0
 27 31  1  0
 27 28  2  0
 28 29  1  0
 28 66  1  0
 29 30  2  0
 29 67  1  0
 30 36  1  0
 30 25  1  0
 31 32  1  0
 31 33  1  0
 31 34  1  0
 32 68  1  0
 32 69  1  0
 32 70  1  0
 33 71  1  0
 33 72  1  0
 33 73  1  0
 34 35  1  0
 36 37  1  0
 37 38  2  0
 38 39  1  0
 38 40  1  0
 39 74  1  0
 39 75  1  0
 39 76  1  0
 40 41  2  0
 40 77  1  0
 41 42  1  0
 41 43  1  0
 43 44  2  0
 43 78  1  0
 44 45  1  0
 44 37  1  0
 45 79  1  0
 45 80  1  0
 45 81  1  0
M  END
>  <minimizedAffinity>  (5) 
-8.24653

>  <mol_id>  (5) 
53300

>  <source_index>  (5) 
4

>  <layer>  (5) 
L1

>  <uniprot>  (5) 
Q15059

>  <paff>  (5) 
6.8239000000000001

>  <smiles>  (5) 
CCc1nc(C2CCCC2)[nH]c1-c1cc2c(=O)n(C)cc(-c3cc(C(C)(C)O)ccc3Oc3c(C)cc(F)cc3C)c2o1

$$$$
L1:Q15059:57289
     RDKit          3D

 75 80  0  0  0  0  0  0  0  0999 V2000
   21.9132    7.6802   26.5002 C   0  0  0  0  0  0  0  0  0  0  0  0
   22.1861    6.3824   26.7543 C   0  0  0  0  0  0  0  0  0  0  0  0
   23.4851    5.8643   26.8106 N   0  0  0  0  0  0  0  0  0  0  0  0
   23.6464    4.4450   27.0835 C   0  0  0  0  0  0  0  0  0  0  0  0
   24.6376    6.6522   26.6022 C   0  0  0  0  0  0  0  0  0  0  0  0
   25.7864    6.2242   26.6454 O   0  0  0  0  0  0  0  0  0  0  0  0
   24.3557    8.0484   26.3257 C   0  0  0  0  0  0  0  0  0  0  0  0
   25.1959    9.1528   26.0514 C   0  0  0  0  0  0  0  0  0  0  0  0
   24.3675   10.2425   25.8537 C   0  0  0  0  0  0  0  0  0  0  0  0
   23.0632    9.8443   26.0072 O   0  0  0  0  0  0  0  0  0  0  0  0
   23.0524    8.5060   26.2890 C   0  0  0  0  0  0  0  0  0  0  0  0
   20.0164    8.8589   25.3479 C   0  0  0  0  0  0  0  0  0  0  0  0
   18.6870    9.2872   25.3508 C   0  0  0  0  0  0  0  0  0  0  0  0
   17.8628    9.0124   26.4455 C   0  0  0  0  0  0  0  0  0  0  0  0
   18.3382    8.3061   27.5663 C   0  0  0  0  0  0  0  0  0  0  0  0
   19.6748    7.8765   27.5467 C   0  0  0  0  0  0  0  0  0  0  0  0
   20.5143    8.1415   26.4486 C   0  0  0  0  0  0  0  0  0  0  0  0
   17.3890    8.0082   28.7270 C   0  0  0  0  0  0  0  0  0  0  0  0
   16.3888    9.1263   29.0503 C   0  0  0  0  0  0  0  0  0  0  0  0
   18.1888    7.6621   29.9887 C   0  0  0  0  0  0  0  0  0  0  0  0
   16.5980    6.8599   28.3895 O   0  0  0  0  0  0  0  0  0  0  0  0
   16.3298    6.9617   27.4595 H   0  0  0  0  0  0  0  0  0  0  0  0
   20.8794    9.0599   24.2863 O   0  0  0  0  0  0  0  0  0  0  0  0
   21.3978   11.5664   23.0474 C   0  0  0  0  0  0  0  0  0  0  0  0
   20.5489   10.5048   22.4087 C   0  0  0  0  0  0  0  0  0  0  0  0
   19.9890   10.7228   21.1439 C   0  0  0  0  0  0  0  0  0  0  0  0
   19.2029    9.7403   20.5523 C   0  0  0  0  0  0  0  0  0  0  0  0
   18.6726    9.9631   19.3425 F   0  0  0  0  0  0  0  0  0  0  0  0
   18.9474    8.5357   21.1986 C   0  0  0  0  0  0  0  0  0  0  0  0
   19.4921    8.2885   22.4654 C   0  0  0  0  0  0  0  0  0  0  0  0
   19.1850    6.9962   23.1680 C   0  0  0  0  0  0  0  0  0  0  0  0
   20.3279    9.2656   23.0406 C   0  0  0  0  0  0  0  0  0  0  0  0
   24.7093   11.5865   25.5345 C   0  0  0  0  0  0  0  0  0  0  0  0
   24.0812   12.7884   25.7680 C   0  0  0  0  0  0  0  0  0  0  0  0
   24.8197   13.8328   25.2688 N   0  0  0  0  0  0  0  0  0  0  0  0
   25.8933   13.2877   24.7319 C   0  0  0  0  0  0  0  0  0  0  0  0
   25.8596   11.9220   24.8695 N   0  0  0  0  0  0  0  0  0  0  0  0
   26.5583   11.2676   24.5470 H   0  0  0  0  0  0  0  0  0  0  0  0
   27.0241   13.9960   24.0545 C   0  0  0  0  0  0  0  0  0  0  0  0
   26.7072   14.2752   22.5743 C   0  0  0  0  0  0  0  0  0  0  0  0
   26.9695   15.7626   22.3661 C   0  0  0  0  0  0  0  0  0  0  0  0
   26.6858   16.3767   23.7250 C   0  0  0  0  0  0  0  0  0  0  0  0
   27.2977   15.3686   24.6879 C   0  0  0  0  0  0  0  0  0  0  0  0
   21.3955    5.7389   26.9154 H   0  0  0  0  0  0  0  0  0  0  0  0
   22.6844    3.9958   27.2163 H   0  0  0  0  0  0  0  0  0  0  0  0
   24.2260    4.3166   27.9737 H   0  0  0  0  0  0  0  0  0  0  0  0
   24.1475    3.9784   26.2613 H   0  0  0  0  0  0  0  0  0  0  0  0
   26.2269    9.1466   26.0073 H   0  0  0  0  0  0  0  0  0  0  0  0
   18.3123    9.8080   24.5424 H   0  0  0  0  0  0  0  0  0  0  0  0
   16.8826    9.3349   26.4317 H   0  0  0  0  0  0  0  0  0  0  0  0
   20.0496    7.3553   28.3547 H   0  0  0  0  0  0  0  0  0  0  0  0
   16.9214   10.0167   29.3118 H   0  0  0  0  0  0  0  0  0  0  0  0
   15.7713    8.8261   29.8709 H   0  0  0  0  0  0  0  0  0  0  0  0
   15.7763    9.3156   28.1936 H   0  0  0  0  0  0  0  0  0  0  0  0
   18.7922    8.4999   30.2695 H   0  0  0  0  0  0  0  0  0  0  0  0
   18.8180    6.8193   29.7921 H   0  0  0  0  0  0  0  0  0  0  0  0
   17.5142    7.4256   30.7849 H   0  0  0  0  0  0  0  0  0  0  0  0
   21.4377   12.4236   22.4082 H   0  0  0  0  0  0  0  0  0  0  0  0
   22.3872   11.1884   23.1993 H   0  0  0  0  0  0  0  0  0  0  0  0
   20.9733   11.8436   23.9897 H   0  0  0  0  0  0  0  0  0  0  0  0
   20.1599   11.6130   20.6506 H   0  0  0  0  0  0  0  0  0  0  0  0
   18.3556    7.8227   20.7443 H   0  0  0  0  0  0  0  0  0  0  0  0
   18.5356    6.4040   22.5577 H   0  0  0  0  0  0  0  0  0  0  0  0
   18.7060    7.2032   24.1021 H   0  0  0  0  0  0  0  0  0  0  0  0
   20.0947    6.4613   23.3445 H   0  0  0  0  0  0  0  0  0  0  0  0
   23.1763   12.8911   26.2533 H   0  0  0  0  0  0  0  0  0  0  0  0
   27.8688   13.3475   24.1587 H   0  0  0  0  0  0  0  0  0  0  0  0
   25.6842   14.0441   22.3624 H   0  0  0  0  0  0  0  0  0  0  0  0
   27.3076   13.6748   21.9232 H   0  0  0  0  0  0  0  0  0  0  0  0
   26.3136   16.1644   21.6223 H   0  0  0  0  0  0  0  0  0  0  0  0
   27.9628   15.9624   22.0221 H   0  0  0  0  0  0  0  0  0  0  0  0
   25.6334   16.4770   23.8900 H   0  0  0  0  0  0  0  0  0  0  0  0
   27.0859   17.3630   23.8350 H   0  0  0  0  0  0  0  0  0  0  0  0
   26.8340   15.4380   25.6497 H   0  0  0  0  0  0  0  0  0  0  0  0
   28.3431   15.5403   24.8384 H   0  0  0  0  0  0  0  0  0  0  0  0
  1  2  2  0
  2  3  1  0
  2 44  1  0
  3  4  1  0
  3  5  1  0
  4 45  1  0
  4 46  1  0
  4 47  1  0
  5  6  2  0
  5  7  1  0
  7  8  1  0
  8  9  2  0
  8 48  1  0
  9 33  1  0
  9 10  1  0
 10 11  1  0
 11  1  1  0
 11  7  2  0
 12 13  2  0
 13 14  1  0
 13 49  1  0
 14 15  2  0
 14 50  1  0
 15 18  1  0
 15 16  1  0
 16 17  2  0
 16 51  1  0
 17  1  1  0
 17 12  1  0
 18 19  1  0
 18 20  1  0
 18 21  1  0
 19 52  1  0
 19 53  1  0
 19 54  1  0
 20 55  1  0
 20 56  1  0
 20 57  1  0
 21 22  1  0
 23 12  1  0
 24 25  1  0
 24 58  1  0
 24 59  1  0
 24 60  1  0
 25 26  2  0
 26 27  1  0
 26 61  1  0
 27 28  1  0
 27 29  2  0
 29 30  1  0
 29 62  1  0
 30 31  1  0
 30 32  2  0
 31 63  1  0
 31 64  1  0
 31 65  1  0
 32 23  1  0
 32 25  1  0
 33 34  2  0
 34 35  1  0
 34 66  1  0
 35 36  2  0
 36 39  1  0
 36 37  1  0
 37 33  1  0
 37 38  1  0
 39 40  1  0
 39 67  1  0
 40 41  1  0
 40 68  1  0
 40 69  1  0
 41 42  1  0
 41 70  1  0
 41 71  1  0
 42 43  1  0
 42 72  1  0
 42 73  1  0
 43 39  1  0
 43 74  1  0
 43 75  1  0
M  END
>  <minimizedAffinity>  (6) 
-9.52717

>  <mol_id>  (6) 
57289

>  <source_index>  (6) 
5

>  <layer>  (6) 
L1

>  <uniprot>  (6) 
Q15059

>  <paff>  (6) 
8

>  <smiles>  (6) 
Cc1cc(F)cc(C)c1Oc1ccc(C(C)(C)O)cc1-c1cn(C)c(=O)c2cc(-c3cnc(C4CCCC4)[nH]3)oc12

$$$$
L1:Q15059:57291
     RDKit          3D

 69 74  0  0  0  0  0  0  0  0999 V2000
   23.0960    9.5304   26.1974 C   0  0  0  0  0  0  0  0  0  0  0  0
   23.8548   10.3199   26.9876 C   0  0  0  0  0  0  0  0  0  0  0  0
   24.0416   11.6888   26.7587 N   0  0  0  0  0  0  0  0  0  0  0  0
   24.8911   12.4286   27.6779 C   0  0  0  0  0  0  0  0  0  0  0  0
   23.4602   12.3718   25.6696 C   0  0  0  0  0  0  0  0  0  0  0  0
   23.6109   13.5674   25.4387 O   0  0  0  0  0  0  0  0  0  0  0  0
   22.6435   11.5328   24.8138 C   0  0  0  0  0  0  0  0  0  0  0  0
   21.9045   11.8054   23.6383 C   0  0  0  0  0  0  0  0  0  0  0  0
   21.3295   10.6096   23.2434 C   0  0  0  0  0  0  0  0  0  0  0  0
   21.6837    9.6338   24.1396 O   0  0  0  0  0  0  0  0  0  0  0  0
   22.4876   10.1896   25.0937 C   0  0  0  0  0  0  0  0  0  0  0  0
   21.7961    7.5934   27.1445 C   0  0  0  0  0  0  0  0  0  0  0  0
   21.6998    6.2237   27.4186 C   0  0  0  0  0  0  0  0  0  0  0  0
   22.7521    5.3636   27.0950 C   0  0  0  0  0  0  0  0  0  0  0  0
   23.9159    5.8585   26.4959 C   0  0  0  0  0  0  0  0  0  0  0  0
   23.9994    7.2259   26.1979 C   0  0  0  0  0  0  0  0  0  0  0  0
   22.9459    8.0992   26.5128 C   0  0  0  0  0  0  0  0  0  0  0  0
   25.0431    4.9310   26.1281 C   0  0  0  0  0  0  0  0  0  0  0  0
   25.6921    4.4468   27.2958 O   0  0  0  0  0  0  0  0  0  0  0  0
   25.3322    4.9258   28.0610 H   0  0  0  0  0  0  0  0  0  0  0  0
   20.7850    8.4934   27.4316 O   0  0  0  0  0  0  0  0  0  0  0  0
   18.6324    8.4874   25.5815 C   0  0  0  0  0  0  0  0  0  0  0  0
   18.4928    7.9830   26.9888 C   0  0  0  0  0  0  0  0  0  0  0  0
   17.2697    7.4603   27.4253 C   0  0  0  0  0  0  0  0  0  0  0  0
   17.1407    6.9877   28.7263 C   0  0  0  0  0  0  0  0  0  0  0  0
   15.9642    6.4912   29.1306 F   0  0  0  0  0  0  0  0  0  0  0  0
   18.2067    7.0306   29.6178 C   0  0  0  0  0  0  0  0  0  0  0  0
   19.4434    7.5482   29.2109 C   0  0  0  0  0  0  0  0  0  0  0  0
   20.5762    7.6162   30.1950 C   0  0  0  0  0  0  0  0  0  0  0  0
   19.5854    7.9814   27.8779 C   0  0  0  0  0  0  0  0  0  0  0  0
   20.5039   10.3269   22.1173 C   0  0  0  0  0  0  0  0  0  0  0  0
   20.3507   11.0102   20.9320 C   0  0  0  0  0  0  0  0  0  0  0  0
   19.4359   10.3896   20.1191 N   0  0  0  0  0  0  0  0  0  0  0  0
   19.0237    9.3320   20.7874 C   0  0  0  0  0  0  0  0  0  0  0  0
   19.6540    9.2579   22.0082 N   0  0  0  0  0  0  0  0  0  0  0  0
   19.5052    8.5395   22.7013 H   0  0  0  0  0  0  0  0  0  0  0  0
   18.0114    8.3344   20.3192 C   0  0  0  0  0  0  0  0  0  0  0  0
   16.6695    8.4411   21.0619 C   0  0  0  0  0  0  0  0  0  0  0  0
   15.6768    8.9590   20.0290 C   0  0  0  0  0  0  0  0  0  0  0  0
   16.1707    8.3444   18.7314 C   0  0  0  0  0  0  0  0  0  0  0  0
   17.6831    8.4911   18.8252 C   0  0  0  0  0  0  0  0  0  0  0  0
   24.3214    9.8922   27.8027 H   0  0  0  0  0  0  0  0  0  0  0  0
   25.2494   11.7698   28.4411 H   0  0  0  0  0  0  0  0  0  0  0  0
   24.3275   13.2202   28.1258 H   0  0  0  0  0  0  0  0  0  0  0  0
   25.7216   12.8402   27.1433 H   0  0  0  0  0  0  0  0  0  0  0  0
   21.8121   12.7187   23.1667 H   0  0  0  0  0  0  0  0  0  0  0  0
   20.8471    5.8476   27.8619 H   0  0  0  0  0  0  0  0  0  0  0  0
   22.6705    4.3553   27.2994 H   0  0  0  0  0  0  0  0  0  0  0  0
   24.8473    7.5959   25.7405 H   0  0  0  0  0  0  0  0  0  0  0  0
   25.7516    5.4599   25.5255 H   0  0  0  0  0  0  0  0  0  0  0  0
   24.6436    4.1000   25.5852 H   0  0  0  0  0  0  0  0  0  0  0  0
   17.6925    8.4023   25.0772 H   0  0  0  0  0  0  0  0  0  0  0  0
   19.3678    7.9061   25.0656 H   0  0  0  0  0  0  0  0  0  0  0  0
   18.9363    9.5132   25.5988 H   0  0  0  0  0  0  0  0  0  0  0  0
   16.4639    7.4258   26.7814 H   0  0  0  0  0  0  0  0  0  0  0  0
   18.0868    6.6805   30.5812 H   0  0  0  0  0  0  0  0  0  0  0  0
   20.2498    7.2380   31.1412 H   0  0  0  0  0  0  0  0  0  0  0  0
   20.8912    8.6327   30.3066 H   0  0  0  0  0  0  0  0  0  0  0  0
   21.3945    7.0264   29.8382 H   0  0  0  0  0  0  0  0  0  0  0  0
   20.8572   11.8753   20.6871 H   0  0  0  0  0  0  0  0  0  0  0  0
   18.4734    7.3898   20.5172 H   0  0  0  0  0  0  0  0  0  0  0  0
   16.7483    9.1246   21.8813 H   0  0  0  0  0  0  0  0  0  0  0  0
   16.3646    7.5005   21.4708 H   0  0  0  0  0  0  0  0  0  0  0  0
   15.6977   10.0276   19.9794 H   0  0  0  0  0  0  0  0  0  0  0  0
   14.6635    8.7007   20.2557 H   0  0  0  0  0  0  0  0  0  0  0  0
   15.7862    8.8751   17.8856 H   0  0  0  0  0  0  0  0  0  0  0  0
   15.8564    7.3296   18.6034 H   0  0  0  0  0  0  0  0  0  0  0  0
   17.9893    9.4539   18.4727 H   0  0  0  0  0  0  0  0  0  0  0  0
   18.1932    7.7665   18.2255 H   0  0  0  0  0  0  0  0  0  0  0  0
  1  2  2  0
  2  3  1  0
  2 42  1  0
  3  4  1  0
  3  5  1  0
  4 43  1  0
  4 44  1  0
  4 45  1  0
  5  6  2  0
  5  7  1  0
  7  8  1  0
  8  9  2  0
  8 46  1  0
  9 31  1  0
  9 10  1  0
 10 11  1  0
 11  1  1  0
 11  7  2  0
 12 13  2  0
 13 14  1  0
 13 47  1  0
 14 15  2  0
 14 48  1  0
 15 18  1  0
 15 16  1  0
 16 17  2  0
 16 49  1  0
 17  1  1  0
 17 12  1  0
 18 19  1  0
 18 50  1  0
 18 51  1  0
 19 20  1  0
 21 12  1  0
 22 23  1  0
 22 52  1  0
 22 53  1  0
 22 54  1  0
 23 24  2  0
 24 25  1  0
 24 55  1  0
 25 26  1  0
 25 27  2  0
 27 28  1  0
 27 56  1  0
 28 29  1  0
 28 30  2  0
 29 57  1  0
 29 58  1  0
 29 59  1  0
 30 21  1  0
 30 23  1  0
 31 32  2  0
 32 33  1  0
 32 60  1  0
 33 34  2  0
 34 37  1  0
 34 35  1  0
 35 31  1  0
 35 36  1  0
 37 38  1  0
 37 61  1  0
 38 39  1  0
 38 62  1  0
 38 63  1  0
 39 40  1  0
 39 64  1  0
 39 65  1  0
 40 41  1  0
 40 66  1  0
 40 67  1  0
 41 37  1  0
 41 68  1  0
 41 69  1  0
M  END
>  <minimizedAffinity>  (7) 
-8.37665

>  <mol_id>  (7) 
57291

>  <source_index>  (7) 
6

>  <layer>  (7) 
L1

>  <uniprot>  (7) 
Q15059

>  <paff>  (7) 
8.0555000000000003

>  <smiles>  (7) 
Cc1cc(F)cc(C)c1Oc1ccc(CO)cc1-c1cn(C)c(=O)c2cc(-c3cnc(C4CCCC4)[nH]3)oc12

$$$$
L1:Q15059:110525
     RDKit          3D

 71 75  0  0  0  0  0  0  0  0999 V2000
   20.5477    8.0727   26.4790 C   0  0  0  0  0  0  0  0  0  0  0  0
   19.6393    7.6807   27.4872 C   0  0  0  0  0  0  0  0  0  0  0  0
   18.2783    8.0360   27.4482 C   0  0  0  0  0  0  0  0  0  0  0  0
   17.8517    8.7878   26.3441 C   0  0  0  0  0  0  0  0  0  0  0  0
   16.5642    9.1430   26.2215 F   0  0  0  0  0  0  0  0  0  0  0  0
   18.7283    9.1887   25.3398 C   0  0  0  0  0  0  0  0  0  0  0  0
   20.0844    8.8652   25.4154 C   0  0  0  0  0  0  0  0  0  0  0  0
   24.4424   10.1728   26.3383 C   0  0  0  0  0  0  0  0  0  0  0  0
   25.2482    9.0597   26.4978 C   0  0  0  0  0  0  0  0  0  0  0  0
   24.3852    7.9476   26.6398 C   0  0  0  0  0  0  0  0  0  0  0  0
   24.6367    6.5323   26.8305 C   0  0  0  0  0  0  0  0  0  0  0  0
   25.7763    6.0831   26.8993 O   0  0  0  0  0  0  0  0  0  0  0  0
   23.4661    5.7488   26.9338 N   0  0  0  0  0  0  0  0  0  0  0  0
   23.5999    4.3138   27.1253 C   0  0  0  0  0  0  0  0  0  0  0  0
   22.1781    6.2841   26.8184 C   0  0  0  0  0  0  0  0  0  0  0  0
   21.9347    7.5959   26.6121 C   0  0  0  0  0  0  0  0  0  0  0  0
   23.0913    8.4215   26.5536 C   0  0  0  0  0  0  0  0  0  0  0  0
   23.1288    9.7765   26.3913 O   0  0  0  0  0  0  0  0  0  0  0  0
   25.6246   13.3123   25.0864 C   0  0  0  0  0  0  0  0  0  0  0  0
   25.1715   13.7735   26.2322 N   0  0  0  0  0  0  0  0  0  0  0  0
   24.6503   12.6862   26.9031 C   0  0  0  0  0  0  0  0  0  0  0  0
   24.0585   12.8701   28.2477 C   0  0  0  0  0  0  0  0  0  0  0  0
   24.7905   11.5410   26.1422 C   0  0  0  0  0  0  0  0  0  0  0  0
   25.4141   11.9619   24.9945 N   0  0  0  0  0  0  0  0  0  0  0  0
   25.6658   11.3661   24.2183 H   0  0  0  0  0  0  0  0  0  0  0  0
   26.3585   15.5732   24.3594 C   0  0  0  0  0  0  0  0  0  0  0  0
   26.2805   14.0972   24.0054 C   0  0  0  0  0  0  0  0  0  0  0  0
   17.2867    7.6376   28.5345 C   0  0  0  0  0  0  0  0  0  0  0  0
   17.9693    6.7848   29.6165 C   0  0  0  0  0  0  0  0  0  0  0  0
   16.5672    8.8100   29.2200 C   0  0  0  0  0  0  0  0  0  0  0  0
   16.2584    6.8687   27.9001 O   0  0  0  0  0  0  0  0  0  0  0  0
   15.7848    6.3733   28.5891 H   0  0  0  0  0  0  0  0  0  0  0  0
   20.8375    9.3358   24.3588 O   0  0  0  0  0  0  0  0  0  0  0  0
   20.2626    9.4106   23.1056 C   0  0  0  0  0  0  0  0  0  0  0  0
   20.4936   10.6023   22.3832 C   0  0  0  0  0  0  0  0  0  0  0  0
   21.3761   11.6969   22.9153 C   0  0  0  0  0  0  0  0  0  0  0  0
   19.9347   10.7463   21.1064 C   0  0  0  0  0  0  0  0  0  0  0  0
   19.1711    9.7227   20.5637 C   0  0  0  0  0  0  0  0  0  0  0  0
   18.6323    9.8768   19.3471 F   0  0  0  0  0  0  0  0  0  0  0  0
   18.9800    8.5308   21.2503 C   0  0  0  0  0  0  0  0  0  0  0  0
   19.5499    8.3423   22.5198 C   0  0  0  0  0  0  0  0  0  0  0  0
   19.3589    7.0125   23.1917 C   0  0  0  0  0  0  0  0  0  0  0  0
   19.9851    7.1153   28.2782 H   0  0  0  0  0  0  0  0  0  0  0  0
   18.3737    9.7282   24.5347 H   0  0  0  0  0  0  0  0  0  0  0  0
   26.2800    9.0436   26.5107 H   0  0  0  0  0  0  0  0  0  0  0  0
   24.6366    4.0585   27.1953 H   0  0  0  0  0  0  0  0  0  0  0  0
   23.1615    3.8008   26.2949 H   0  0  0  0  0  0  0  0  0  0  0  0
   23.1000    4.0261   28.0266 H   0  0  0  0  0  0  0  0  0  0  0  0
   21.3730    5.6430   26.8949 H   0  0  0  0  0  0  0  0  0  0  0  0
   24.1212   13.9011   28.5270 H   0  0  0  0  0  0  0  0  0  0  0  0
   24.5941   12.2750   28.9576 H   0  0  0  0  0  0  0  0  0  0  0  0
   23.0325   12.5671   28.2303 H   0  0  0  0  0  0  0  0  0  0  0  0
   26.8341   16.1064   23.5629 H   0  0  0  0  0  0  0  0  0  0  0  0
   26.9256   15.6948   25.2586 H   0  0  0  0  0  0  0  0  0  0  0  0
   25.3707   15.9575   24.5059 H   0  0  0  0  0  0  0  0  0  0  0  0
   27.2715   13.7225   23.8556 H   0  0  0  0  0  0  0  0  0  0  0  0
   25.6968   13.9955   23.1144 H   0  0  0  0  0  0  0  0  0  0  0  0
   18.7377    7.3587   30.0909 H   0  0  0  0  0  0  0  0  0  0  0  0
   18.4003    5.9152   29.1660 H   0  0  0  0  0  0  0  0  0  0  0  0
   17.2450    6.4870   30.3456 H   0  0  0  0  0  0  0  0  0  0  0  0
   17.2857    9.4281   29.7166 H   0  0  0  0  0  0  0  0  0  0  0  0
   15.8682    8.4302   29.9355 H   0  0  0  0  0  0  0  0  0  0  0  0
   16.0469    9.3879   28.4851 H   0  0  0  0  0  0  0  0  0  0  0  0
   21.7190   11.4344   23.8943 H   0  0  0  0  0  0  0  0  0  0  0  0
   20.8209   12.6103   22.9649 H   0  0  0  0  0  0  0  0  0  0  0  0
   22.2164   11.8251   22.2655 H   0  0  0  0  0  0  0  0  0  0  0  0
   20.0910   11.6137   20.5696 H   0  0  0  0  0  0  0  0  0  0  0  0
   18.4156    7.7788   20.8249 H   0  0  0  0  0  0  0  0  0  0  0  0
   18.7885    6.3696   22.5544 H   0  0  0  0  0  0  0  0  0  0  0  0
   18.8384    7.1515   24.1162 H   0  0  0  0  0  0  0  0  0  0  0  0
   20.3137    6.5692   23.3831 H   0  0  0  0  0  0  0  0  0  0  0  0
  1  2  2  0
  2  3  1  0
  2 43  1  0
  3 28  1  0
  3  4  2  0
  4  5  1  0
  4  6  1  0
  6  7  2  0
  6 44  1  0
  7 33  1  0
  7  1  1  0
  8  9  2  0
  9 10  1  0
  9 45  1  0
 10 11  1  0
 11 12  2  0
 11 13  1  0
 13 14  1  0
 13 15  1  0
 14 46  1  0
 14 47  1  0
 14 48  1  0
 15 16  2  0
 15 49  1  0
 16  1  1  0
 16 17  1  0
 17 18  1  0
 17 10  2  0
 18  8  1  0
 19 20  2  0
 20 21  1  0
 21 22  1  0
 21 23  2  0
 22 50  1  0
 22 51  1  0
 22 52  1  0
 23  8  1  0
 23 24  1  0
 24 19  1  0
 24 25  1  0
 26 27  1  0
 26 53  1  0
 26 54  1  0
 26 55  1  0
 27 19  1  0
 27 56  1  0
 27 57  1  0
 28 29  1  0
 28 30  1  0
 28 31  1  0
 29 58  1  0
 29 59  1  0
 29 60  1  0
 30 61  1  0
 30 62  1  0
 30 63  1  0
 31 32  1  0
 33 34  1  0
 34 35  2  0
 35 36  1  0
 35 37  1  0
 36 64  1  0
 36 65  1  0
 36 66  1  0
 37 38  2  0
 37 67  1  0
 38 39  1  0
 38 40  1  0
 40 41  2  0
 40 68  1  0
 41 42  1  0
 41 34  1  0
 42 69  1  0
 42 70  1  0
 42 71  1  0
M  END
>  <minimizedAffinity>  (8) 
-9.36683

>  <mol_id>  (8) 
110525

>  <source_index>  (8) 
7

>  <layer>  (8) 
L1

>  <uniprot>  (8) 
Q15059

>  <paff>  (8) 
7.9207999999999998

>  <smiles>  (8) 
CCc1nc(C)c(-c2cc3c(=O)n(C)cc(-c4cc(C(C)(C)O)c(F)cc4Oc4c(C)cc(F)cc4C)c3o2)[nH]1

$$$$
L1:Q15059:128831
     RDKit          3D

 77 81  0  0  0  0  0  0  0  0999 V2000
   21.3065    7.4623   31.4458 C   0  0  0  0  0  0  0  0  0  0  0  0
   22.5056    6.8822   31.0655 C   0  0  0  0  0  0  0  0  0  0  0  0
   22.4737    6.7641   29.6563 C   0  0  0  0  0  0  0  0  0  0  0  0
   23.4328    6.2491   28.6984 C   0  0  0  0  0  0  0  0  0  0  0  0
   24.5098    5.7835   29.0573 O   0  0  0  0  0  0  0  0  0  0  0  0
   23.0063    6.3341   27.3564 N   0  0  0  0  0  0  0  0  0  0  0  0
   23.8878    5.8426   26.3102 C   0  0  0  0  0  0  0  0  0  0  0  0
   21.7590    6.8499   26.9839 C   0  0  0  0  0  0  0  0  0  0  0  0
   20.8568    7.3267   27.8686 C   0  0  0  0  0  0  0  0  0  0  0  0
   21.2601    7.2662   29.2309 C   0  0  0  0  0  0  0  0  0  0  0  0
   20.5543    7.6866   30.3211 O   0  0  0  0  0  0  0  0  0  0  0  0
   19.8941    7.2181   33.5704 C   0  0  0  0  0  0  0  0  0  0  0  0
   19.7874    7.9114   34.7577 N   0  0  0  0  0  0  0  0  0  0  0  0
   20.6435    8.9073   34.6769 C   0  0  0  0  0  0  0  0  0  0  0  0
   21.3028    8.8783   33.4740 N   0  0  0  0  0  0  0  0  0  0  0  0
   20.8419    7.8068   32.7516 C   0  0  0  0  0  0  0  0  0  0  0  0
   22.0079    9.5366   33.1781 H   0  0  0  0  0  0  0  0  0  0  0  0
   20.9078    9.9564   35.7131 C   0  0  0  0  0  0  0  0  0  0  0  0
   20.7217   11.3534   35.1225 C   0  0  0  0  0  0  0  0  0  0  0  0
   19.9979    9.7547   36.9242 C   0  0  0  0  0  0  0  0  0  0  0  0
   17.9229    6.2914   32.3377 C   0  0  0  0  0  0  0  0  0  0  0  0
   19.0379    6.0223   33.3351 C   0  0  0  0  0  0  0  0  0  0  0  0
   19.5616    7.8449   27.3919 C   0  0  0  0  0  0  0  0  0  0  0  0
   18.5068    7.9715   28.3154 C   0  0  0  0  0  0  0  0  0  0  0  0
   17.2472    8.4571   27.9291 C   0  0  0  0  0  0  0  0  0  0  0  0
   17.0770    8.8305   26.5832 C   0  0  0  0  0  0  0  0  0  0  0  0
   18.1182    8.7206   25.6571 C   0  0  0  0  0  0  0  0  0  0  0  0
   19.3666    8.2382   26.0578 C   0  0  0  0  0  0  0  0  0  0  0  0
   16.0801    8.6070   28.9037 C   0  0  0  0  0  0  0  0  0  0  0  0
   15.2413    7.3387   29.1096 C   0  0  0  0  0  0  0  0  0  0  0  0
   16.5756    9.1112   30.2634 C   0  0  0  0  0  0  0  0  0  0  0  0
   15.1783    9.5938   28.3816 O   0  0  0  0  0  0  0  0  0  0  0  0
   15.0787    9.4135   27.4311 H   0  0  0  0  0  0  0  0  0  0  0  0
   20.4336    8.0897   25.1906 O   0  0  0  0  0  0  0  0  0  0  0  0
   20.5994    9.0479   24.2131 C   0  0  0  0  0  0  0  0  0  0  0  0
   21.3080   10.2182   24.5489 C   0  0  0  0  0  0  0  0  0  0  0  0
   21.9026   10.4024   25.9154 C   0  0  0  0  0  0  0  0  0  0  0  0
   21.4792   11.2052   23.5710 C   0  0  0  0  0  0  0  0  0  0  0  0
   20.9268   11.0340   22.3068 C   0  0  0  0  0  0  0  0  0  0  0  0
   21.0968   11.9872   21.3811 F   0  0  0  0  0  0  0  0  0  0  0  0
   20.1919    9.8972   21.9891 C   0  0  0  0  0  0  0  0  0  0  0  0
   20.0003    8.8931   22.9473 C   0  0  0  0  0  0  0  0  0  0  0  0
   19.1774    7.6858   22.5986 C   0  0  0  0  0  0  0  0  0  0  0  0
   23.2742    6.5921   31.6901 H   0  0  0  0  0  0  0  0  0  0  0  0
   24.7956    5.4834   26.7482 H   0  0  0  0  0  0  0  0  0  0  0  0
   24.1105    6.6371   25.6290 H   0  0  0  0  0  0  0  0  0  0  0  0
   23.4062    5.0455   25.7833 H   0  0  0  0  0  0  0  0  0  0  0  0
   21.5164    6.8666   25.9810 H   0  0  0  0  0  0  0  0  0  0  0  0
   21.9231    9.8633   36.0377 H   0  0  0  0  0  0  0  0  0  0  0  0
   19.7110   11.4686   34.7907 H   0  0  0  0  0  0  0  0  0  0  0  0
   21.3860   11.4816   34.2936 H   0  0  0  0  0  0  0  0  0  0  0  0
   20.9378   12.0882   35.8697 H   0  0  0  0  0  0  0  0  0  0  0  0
   18.9756    9.8439   36.6211 H   0  0  0  0  0  0  0  0  0  0  0  0
   20.2171   10.4974   37.6626 H   0  0  0  0  0  0  0  0  0  0  0  0
   20.1639    8.7816   37.3369 H   0  0  0  0  0  0  0  0  0  0  0  0
   17.3404    5.4036   32.2058 H   0  0  0  0  0  0  0  0  0  0  0  0
   18.3464    6.5829   31.3993 H   0  0  0  0  0  0  0  0  0  0  0  0
   17.2969    7.0772   32.7059 H   0  0  0  0  0  0  0  0  0  0  0  0
   19.6509    5.2301   32.9589 H   0  0  0  0  0  0  0  0  0  0  0  0
   18.5834    5.7595   34.2675 H   0  0  0  0  0  0  0  0  0  0  0  0
   18.6629    7.7012   29.2991 H   0  0  0  0  0  0  0  0  0  0  0  0
   16.1624    9.1939   26.2727 H   0  0  0  0  0  0  0  0  0  0  0  0
   17.9643    8.9966   24.6747 H   0  0  0  0  0  0  0  0  0  0  0  0
   15.8623    6.5600   29.5005 H   0  0  0  0  0  0  0  0  0  0  0  0
   14.8277    7.0286   28.1728 H   0  0  0  0  0  0  0  0  0  0  0  0
   14.4490    7.5431   29.7991 H   0  0  0  0  0  0  0  0  0  0  0  0
   17.2529    8.3972   30.6833 H   0  0  0  0  0  0  0  0  0  0  0  0
   15.7416    9.2414   30.9210 H   0  0  0  0  0  0  0  0  0  0  0  0
   17.0782   10.0471   30.1352 H   0  0  0  0  0  0  0  0  0  0  0  0
   21.6702    9.5528   26.5230 H   0  0  0  0  0  0  0  0  0  0  0  0
   21.4966   11.2843   26.3651 H   0  0  0  0  0  0  0  0  0  0  0  0
   22.9647   10.5013   25.8318 H   0  0  0  0  0  0  0  0  0  0  0  0
   22.0154   12.0597   23.7885 H   0  0  0  0  0  0  0  0  0  0  0  0
   19.7868    9.7928   21.0457 H   0  0  0  0  0  0  0  0  0  0  0  0
   18.8215    7.7750   21.5935 H   0  0  0  0  0  0  0  0  0  0  0  0
   18.3447    7.6165   23.2670 H   0  0  0  0  0  0  0  0  0  0  0  0
   19.7798    6.8059   22.6869 H   0  0  0  0  0  0  0  0  0  0  0  0
  1  2  2  0
  2  3  1  0
  2 44  1  0
  3  4  1  0
  4  5  2  0
  4  6  1  0
  6  7  1  0
  6  8  1  0
  7 45  1  0
  7 46  1  0
  7 47  1  0
  8  9  2  0
  8 48  1  0
  9 23  1  0
  9 10  1  0
 10 11  1  0
 10  3  2  0
 11  1  1  0
 12 13  1  0
 13 14  2  0
 14 18  1  0
 14 15  1  0
 15 16  1  0
 15 17  1  0
 16  1  1  0
 16 12  2  0
 18 19  1  0
 18 20  1  0
 18 49  1  0
 19 50  1  0
 19 51  1  0
 19 52  1  0
 20 53  1  0
 20 54  1  0
 20 55  1  0
 21 22  1  0
 21 56  1  0
 21 57  1  0
 21 58  1  0
 22 12  1  0
 22 59  1  0
 22 60  1  0
 23 24  2  0
 24 25  1  0
 24 61  1  0
 25 29  1  0
 25 26  2  0
 26 27  1  0
 26 62  1  0
 27 28  2  0
 27 63  1  0
 28 34  1  0
 28 23  1  0
 29 30  1  0
 29 31  1  0
 29 32  1  0
 30 64  1  0
 30 65  1  0
 30 66  1  0
 31 67  1  0
 31 68  1  0
 31 69  1  0
 32 33  1  0
 34 35  1  0
 35 36  2  0
 36 37  1  0
 36 38  1  0
 37 70  1  0
 37 71  1  0
 37 72  1  0
 38 39  2  0
 38 73  1  0
 39 40  1  0
 39 41  1  0
 41 42  2  0
 41 74  1  0
 42 43  1  0
 42 35  1  0
 43 75  1  0
 43 76  1  0
 43 77  1  0
M  END
>  <minimizedAffinity>  (9) 
-8.94937

>  <mol_id>  (9) 
128831

>  <source_index>  (9) 
8

>  <layer>  (9) 
L1

>  <uniprot>  (9) 
Q15059

>  <paff>  (9) 
6.9135999999999997

>  <smiles>  (9) 
CCc1nc(C(C)C)[nH]c1-c1cc2c(=O)n(C)cc(-c3cc(C(C)(C)O)ccc3Oc3c(C)cc(F)cc3C)c2o1

$$$$
L1:Q15059:139243
     RDKit          3D

 75 80  0  0  0  0  0  0  0  0999 V2000
   21.2518    7.4706   31.2464 C   0  0  0  0  0  0  0  0  0  0  0  0
   22.4551    6.8924   30.8829 C   0  0  0  0  0  0  0  0  0  0  0  0
   22.4272    6.7364   29.4762 C   0  0  0  0  0  0  0  0  0  0  0  0
   23.3937    6.2142   28.5290 C   0  0  0  0  0  0  0  0  0  0  0  0
   24.4814    5.7790   28.8938 O   0  0  0  0  0  0  0  0  0  0  0  0
   22.9627    6.2578   27.1848 N   0  0  0  0  0  0  0  0  0  0  0  0
   23.8632    5.7857   26.1457 C   0  0  0  0  0  0  0  0  0  0  0  0
   21.7170    6.7672   26.7985 C   0  0  0  0  0  0  0  0  0  0  0  0
   20.8099    7.2483   27.6741 C   0  0  0  0  0  0  0  0  0  0  0  0
   21.2086    7.2131   29.0377 C   0  0  0  0  0  0  0  0  0  0  0  0
   20.4906    7.6427   30.1160 O   0  0  0  0  0  0  0  0  0  0  0  0
   19.7142    7.4667   33.3342 C   0  0  0  0  0  0  0  0  0  0  0  0
   19.6932    8.2112   34.4978 N   0  0  0  0  0  0  0  0  0  0  0  0
   20.7038    9.0444   34.4084 C   0  0  0  0  0  0  0  0  0  0  0  0
   21.3767    8.8739   33.2337 N   0  0  0  0  0  0  0  0  0  0  0  0
   20.7592    7.8730   32.5230 C   0  0  0  0  0  0  0  0  0  0  0  0
   22.1921    9.3866   32.9314 H   0  0  0  0  0  0  0  0  0  0  0  0
   21.0925   10.0789   35.5023 C   0  0  0  0  0  0  0  0  0  0  0  0
   20.1583   11.2317   35.7657 C   0  0  0  0  0  0  0  0  0  0  0  0
   21.4795   11.4758   35.0925 C   0  0  0  0  0  0  0  0  0  0  0  0
   17.6911    6.7526   32.0506 C   0  0  0  0  0  0  0  0  0  0  0  0
   18.6916    6.4026   33.1397 C   0  0  0  0  0  0  0  0  0  0  0  0
   19.5202    7.7727   27.1959 C   0  0  0  0  0  0  0  0  0  0  0  0
   18.3651    7.5087   27.9530 C   0  0  0  0  0  0  0  0  0  0  0  0
   17.1106    8.0239   27.5843 C   0  0  0  0  0  0  0  0  0  0  0  0
   17.0435    8.7924   26.4109 C   0  0  0  0  0  0  0  0  0  0  0  0
   18.1844    9.0580   25.6452 C   0  0  0  0  0  0  0  0  0  0  0  0
   19.4294    8.5620   26.0390 C   0  0  0  0  0  0  0  0  0  0  0  0
   15.8582    7.7268   28.4076 C   0  0  0  0  0  0  0  0  0  0  0  0
   15.7226    8.6436   29.6331 C   0  0  0  0  0  0  0  0  0  0  0  0
   15.8548    6.2540   28.8352 C   0  0  0  0  0  0  0  0  0  0  0  0
   14.6929    7.9486   27.5994 O   0  0  0  0  0  0  0  0  0  0  0  0
   13.9132    7.7240   28.1345 H   0  0  0  0  0  0  0  0  0  0  0  0
   20.5979    8.7711   25.3295 O   0  0  0  0  0  0  0  0  0  0  0  0
   20.5007    9.3493   24.0829 C   0  0  0  0  0  0  0  0  0  0  0  0
   19.8776    8.6603   23.0242 C   0  0  0  0  0  0  0  0  0  0  0  0
   19.3086    7.2823   23.2034 C   0  0  0  0  0  0  0  0  0  0  0  0
   19.7933    9.2891   21.7753 C   0  0  0  0  0  0  0  0  0  0  0  0
   20.2834   10.5800   21.6087 C   0  0  0  0  0  0  0  0  0  0  0  0
   20.1921   11.1683   20.4088 F   0  0  0  0  0  0  0  0  0  0  0  0
   20.8554   11.2761   22.6677 C   0  0  0  0  0  0  0  0  0  0  0  0
   20.9564   10.6732   23.9268 C   0  0  0  0  0  0  0  0  0  0  0  0
   21.5636   11.4266   25.0757 C   0  0  0  0  0  0  0  0  0  0  0  0
   23.2253    6.6259   31.5160 H   0  0  0  0  0  0  0  0  0  0  0  0
   24.7676    5.4290   26.5926 H   0  0  0  0  0  0  0  0  0  0  0  0
   24.0889    6.5899   25.4769 H   0  0  0  0  0  0  0  0  0  0  0  0
   23.3959    4.9908   25.6029 H   0  0  0  0  0  0  0  0  0  0  0  0
   21.4808    6.7751   25.7939 H   0  0  0  0  0  0  0  0  0  0  0  0
   21.5482    9.3154   36.0976 H   0  0  0  0  0  0  0  0  0  0  0  0
   19.9976   11.5717   36.7674 H   0  0  0  0  0  0  0  0  0  0  0  0
   19.1374   11.4472   35.5285 H   0  0  0  0  0  0  0  0  0  0  0  0
   22.2590   11.9897   35.6151 H   0  0  0  0  0  0  0  0  0  0  0  0
   21.7880   11.9372   34.1777 H   0  0  0  0  0  0  0  0  0  0  0  0
   16.9806    5.9589   31.9506 H   0  0  0  0  0  0  0  0  0  0  0  0
   18.2067    6.8887   31.1230 H   0  0  0  0  0  0  0  0  0  0  0  0
   17.1816    7.6566   32.3115 H   0  0  0  0  0  0  0  0  0  0  0  0
   19.1883    5.4938   32.8709 H   0  0  0  0  0  0  0  0  0  0  0  0
   18.1514    6.2976   34.0574 H   0  0  0  0  0  0  0  0  0  0  0  0
   18.4403    6.9229   28.7993 H   0  0  0  0  0  0  0  0  0  0  0  0
   16.1325    9.1697   26.1064 H   0  0  0  0  0  0  0  0  0  0  0  0
   18.1055    9.6231   24.7853 H   0  0  0  0  0  0  0  0  0  0  0  0
   16.5721    8.5146   30.2707 H   0  0  0  0  0  0  0  0  0  0  0  0
   14.8320    8.3918   30.1701 H   0  0  0  0  0  0  0  0  0  0  0  0
   15.6692    9.6628   29.3119 H   0  0  0  0  0  0  0  0  0  0  0  0
   16.7143    6.0566   29.4412 H   0  0  0  0  0  0  0  0  0  0  0  0
   15.8802    5.6302   27.9662 H   0  0  0  0  0  0  0  0  0  0  0  0
   14.9676    6.0476   29.3966 H   0  0  0  0  0  0  0  0  0  0  0  0
   19.4614    6.9618   24.2128 H   0  0  0  0  0  0  0  0  0  0  0  0
   19.7985    6.6045   22.5359 H   0  0  0  0  0  0  0  0  0  0  0  0
   18.2604    7.2986   22.9892 H   0  0  0  0  0  0  0  0  0  0  0  0
   19.3666    8.7934   20.9770 H   0  0  0  0  0  0  0  0  0  0  0  0
   21.2052   12.2365   22.5255 H   0  0  0  0  0  0  0  0  0  0  0  0
   21.8426   12.4074   24.7514 H   0  0  0  0  0  0  0  0  0  0  0  0
   22.4309   10.9062   25.4249 H   0  0  0  0  0  0  0  0  0  0  0  0
   20.8499   11.5028   25.8692 H   0  0  0  0  0  0  0  0  0  0  0  0
  1  2  2  0
  2  3  1  0
  2 44  1  0
  3  4  1  0
  4  5  2  0
  4  6  1  0
  6  7  1  0
  6  8  1  0
  7 45  1  0
  7 46  1  0
  7 47  1  0
  8  9  2  0
  8 48  1  0
  9 23  1  0
  9 10  1  0
 10 11  1  0
 10  3  2  0
 11  1  1  0
 12 13  1  0
 13 14  2  0
 14 18  1  0
 14 15  1  0
 15 16  1  0
 15 17  1  0
 16  1  1  0
 16 12  2  0
 18 19  1  0
 18 49  1  0
 19 20  1  0
 19 50  1  0
 19 51  1  0
 20 18  1  0
 20 52  1  0
 20 53  1  0
 21 22  1  0
 21 54  1  0
 21 55  1  0
 21 56  1  0
 22 12  1  0
 22 57  1  0
 22 58  1  0
 23 24  2  0
 24 25  1  0
 24 59  1  0
 25 29  1  0
 25 26  2  0
 26 27  1  0
 26 60  1  0
 27 28  2  0
 27 61  1  0
 28 34  1  0
 28 23  1  0
 29 30  1  0
 29 31  1  0
 29 32  1  0
 30 62  1  0
 30 63  1  0
 30 64  1  0
 31 65  1  0
 31 66  1  0
 31 67  1  0
 32 33  1  0
 34 35  1  0
 35 36  2  0
 36 37  1  0
 36 38  1  0
 37 68  1  0
 37 69  1  0
 37 70  1  0
 38 39  2  0
 38 71  1  0
 39 40  1  0
 39 41  1  0
 41 42  2  0
 41 72  1  0
 42 43  1  0
 42 35  1  0
 43 73  1  0
 43 74  1  0
 43 75  1  0
M  END
>  <minimizedAffinity>  (10) 
-9.16769

>  <mol_id>  (10) 
139243

>  <source_index>  (10) 
9

>  <layer>  (10) 
L1

>  <uniprot>  (10) 
Q15059

>  <paff>  (10) 
7.3978999999999999

>  <smiles>  (10) 
CCc1nc(C2CC2)[nH]c1-c1cc2c(=O)n(C)cc(-c3cc(C(C)(C)O)ccc3Oc3c(C)cc(F)cc3C)c2o1

$$$$
