L1:O95271:3228
     RDKit          3D

 41 43  0  0  0  0  0  0  0  0999 V2000
  -25.6171  -13.5548   -3.8727 C   0  0  0  0  0  0  0  0  0  0  0  0
  -26.8242  -13.5200   -4.5820 C   0  0  0  0  0  0  0  0  0  0  0  0
  -27.9313  -14.1499   -4.0620 C   0  0  0  0  0  0  0  0  0  0  0  0
  -27.8703  -14.7519   -2.8048 C   0  0  0  0  0  0  0  0  0  0  0  0
  -29.0032  -15.4890   -2.2689 C   0  0  0  0  0  0  0  0  0  0  0  0
  -29.9933  -15.8489   -2.8978 O   0  0  0  0  0  0  0  0  0  0  0  0
  -28.8643  -15.7701   -0.9114 N   0  0  0  0  0  0  0  0  0  0  0  0
  -27.7200  -15.5342   -0.1868 C   0  0  0  0  0  0  0  0  0  0  0  0
  -26.6443  -15.0247   -0.7027 N   0  0  0  0  0  0  0  0  0  0  0  0
  -26.6861  -14.6715   -2.0361 C   0  0  0  0  0  0  0  0  0  0  0  0
  -25.5230  -14.2003   -2.6530 C   0  0  0  0  0  0  0  0  0  0  0  0
  -29.6417  -16.2367   -0.4644 H   0  0  0  0  0  0  0  0  0  0  0  0
  -27.7541  -15.9023    1.2306 C   0  0  0  0  0  0  0  0  0  0  0  0
  -26.6905  -16.6424    1.7350 C   0  0  0  0  0  0  0  0  0  0  0  0
  -26.6927  -17.0277    3.0585 C   0  0  0  0  0  0  0  0  0  0  0  0
  -27.7394  -16.6377    3.8819 C   0  0  0  0  0  0  0  0  0  0  0  0
  -28.7934  -15.8792    3.3952 C   0  0  0  0  0  0  0  0  0  0  0  0
  -28.8180  -15.5447    2.0584 C   0  0  0  0  0  0  0  0  0  0  0  0
  -27.7501  -17.0963    5.2959 C   0  0  0  0  0  0  0  0  0  0  0  0
  -29.0104  -17.2291    5.7982 F   0  0  0  0  0  0  0  0  0  0  0  0
  -27.0983  -16.2518    6.1373 F   0  0  0  0  0  0  0  0  0  0  0  0
  -27.1545  -18.3106    5.4217 F   0  0  0  0  0  0  0  0  0  0  0  0
  -23.3384  -13.5734   -4.7181 C   0  0  0  0  0  0  0  0  0  0  0  0
  -23.2138  -14.7944   -4.6963 O   0  0  0  0  0  0  0  0  0  0  0  0
  -24.4790  -12.9091   -4.4146 N   0  0  0  0  0  0  0  0  0  0  0  0
  -24.4617  -11.8934   -4.4403 H   0  0  0  0  0  0  0  0  0  0  0  0
  -22.1639  -12.6694   -5.0763 C   0  0  0  0  0  0  0  0  0  0  0  0
  -21.9340  -11.4852   -3.0426 C   0  0  0  0  0  0  0  0  0  0  0  0
  -22.1988  -11.4042   -4.4315 O   0  0  0  0  0  0  0  0  0  0  0  0
  -26.8778  -13.0021   -5.5282 H   0  0  0  0  0  0  0  0  0  0  0  0
  -28.8628  -14.1891   -4.6103 H   0  0  0  0  0  0  0  0  0  0  0  0
  -24.5598  -14.3602   -2.1903 H   0  0  0  0  0  0  0  0  0  0  0  0
  -25.8808  -16.8985    1.0686 H   0  0  0  0  0  0  0  0  0  0  0  0
  -25.8768  -17.6166    3.4542 H   0  0  0  0  0  0  0  0  0  0  0  0
  -29.6031  -15.5948    4.0521 H   0  0  0  0  0  0  0  0  0  0  0  0
  -29.6669  -15.0165    1.6516 H   0  0  0  0  0  0  0  0  0  0  0  0
  -21.2469  -13.2125   -4.8422 H   0  0  0  0  0  0  0  0  0  0  0  0
  -22.1707  -12.4662   -6.1483 H   0  0  0  0  0  0  0  0  0  0  0  0
  -22.0615  -10.4846   -2.6445 H   0  0  0  0  0  0  0  0  0  0  0  0
  -20.9107  -11.8266   -2.8504 H   0  0  0  0  0  0  0  0  0  0  0  0
  -22.6220  -12.1632   -2.5370 H   0  0  0  0  0  0  0  0  0  0  0  0
  1  2  2  0
  2  3  1  0
  2 30  1  0
  3  4  2  0
  3 31  1  0
  4  5  1  0
  5  6  2  0
  5  7  1  0
  7  8  1  0
  7 12  1  0
  8 13  1  0
  8  9  2  0
  9 10  1  0
 10 11  2  0
 10  4  1  0
 11  1  1  0
 11 32  1  0
 13 14  2  0
 14 15  1  0
 14 33  1  0
 15 16  2  0
 15 34  1  0
 16 19  1  0
 16 17  1  0
 17 18  2  0
 17 35  1  0
 18 13  1  0
 18 36  1  0
 19 20  1  0
 19 21  1  0
 19 22  1  0
 23 24  2  0
 23 25  1  0
 25  1  1  0
 25 26  1  0
 27 23  1  0
 27 37  1  0
 27 38  1  0
 28 29  1  0
 28 39  1  0
 28 40  1  0
 28 41  1  0
 29 27  1  0
M  END
>  <minimizedAffinity>  (1) 
-10.52971

>  <mol_id>  (1) 
3228

>  <source_index>  (1) 
0

>  <layer>  (1) 
L1

>  <uniprot>  (1) 
O95271

>  <paff>  (1) 
6

>  <smiles>  (1) 
COCC(=O)Nc1ccc2c(=O)[nH]c(-c3ccc(C(F)(F)F)cc3)nc2c1

>  <aimnet_interaction_kcal_mol>  (1) 
-53.911096343823075

$$$$
L1:O95271:9152
     RDKit          3D

 53 55  0  0  0  0  0  0  0  0999 V2000
  -27.4038  -16.0155    1.0967 C   0  0  0  0  0  0  0  0  0  0  0  0
  -26.5357  -14.9586    1.3988 C   0  0  0  0  0  0  0  0  0  0  0  0
  -26.4218  -13.9032    0.5421 C   0  0  0  0  0  0  0  0  0  0  0  0
  -27.0189  -13.9330   -0.7053 C   0  0  0  0  0  0  0  0  0  0  0  0
  -26.7069  -12.8931   -1.6581 C   0  0  0  0  0  0  0  0  0  0  0  0
  -25.9579  -11.9459   -1.4456 O   0  0  0  0  0  0  0  0  0  0  0  0
  -27.3580  -13.0623   -2.8844 N   0  0  0  0  0  0  0  0  0  0  0  0
  -28.2424  -14.0934   -3.1268 C   0  0  0  0  0  0  0  0  0  0  0  0
  -28.4523  -15.0677   -2.2908 N   0  0  0  0  0  0  0  0  0  0  0  0
  -27.8473  -15.0132   -1.0575 C   0  0  0  0  0  0  0  0  0  0  0  0
  -28.0442  -16.0494   -0.1302 C   0  0  0  0  0  0  0  0  0  0  0  0
  -27.1308  -12.3772   -3.5931 H   0  0  0  0  0  0  0  0  0  0  0  0
  -28.9912  -14.1055   -4.3889 C   0  0  0  0  0  0  0  0  0  0  0  0
  -29.6171  -15.3030   -4.7490 C   0  0  0  0  0  0  0  0  0  0  0  0
  -30.4800  -15.3669   -5.8171 C   0  0  0  0  0  0  0  0  0  0  0  0
  -30.7324  -14.2344   -6.5849 C   0  0  0  0  0  0  0  0  0  0  0  0
  -30.0191  -13.0676   -6.3161 C   0  0  0  0  0  0  0  0  0  0  0  0
  -29.1759  -12.9987   -5.2204 C   0  0  0  0  0  0  0  0  0  0  0  0
  -31.6006  -14.2551   -7.6375 O   0  0  0  0  0  0  0  0  0  0  0  0
  -32.9245  -14.7499   -7.3630 C   0  0  0  0  0  0  0  0  0  0  0  0
  -33.4600  -15.6135   -8.4897 C   0  0  0  0  0  0  0  0  0  0  0  0
  -33.0507  -16.9990   -8.5764 N   0  0  0  0  0  0  0  0  0  0  0  0
  -33.3926  -17.7988   -7.4258 C   0  0  0  0  0  0  0  0  0  0  0  0
  -31.7046  -17.2319   -9.0491 C   0  0  0  0  0  0  0  0  0  0  0  0
  -26.6679  -17.5168    2.8987 C   0  0  0  0  0  0  0  0  0  0  0  0
  -25.4980  -17.6520    2.5600 O   0  0  0  0  0  0  0  0  0  0  0  0
  -27.6393  -16.9720    2.1045 N   0  0  0  0  0  0  0  0  0  0  0  0
  -28.5906  -17.2802    2.2429 H   0  0  0  0  0  0  0  0  0  0  0  0
  -27.1243  -17.9632    4.2934 C   0  0  0  0  0  0  0  0  0  0  0  0
  -28.5635  -16.2518    5.1694 C   0  0  0  0  0  0  0  0  0  0  0  0
  -27.3051  -16.9025    5.2238 O   0  0  0  0  0  0  0  0  0  0  0  0
  -25.9170  -15.0399    2.2792 H   0  0  0  0  0  0  0  0  0  0  0  0
  -25.8118  -13.0439    0.7662 H   0  0  0  0  0  0  0  0  0  0  0  0
  -28.6702  -16.8702   -0.4291 H   0  0  0  0  0  0  0  0  0  0  0  0
  -29.4192  -16.1854   -4.1598 H   0  0  0  0  0  0  0  0  0  0  0  0
  -30.9371  -16.3020   -6.0935 H   0  0  0  0  0  0  0  0  0  0  0  0
  -30.1474  -12.2106   -6.9622 H   0  0  0  0  0  0  0  0  0  0  0  0
  -28.6836  -12.0589   -5.0104 H   0  0  0  0  0  0  0  0  0  0  0  0
  -33.5884  -13.8877   -7.2555 H   0  0  0  0  0  0  0  0  0  0  0  0
  -32.9376  -15.2914   -6.4192 H   0  0  0  0  0  0  0  0  0  0  0  0
  -33.2352  -15.1237   -9.4378 H   0  0  0  0  0  0  0  0  0  0  0  0
  -34.5480  -15.6068   -8.3932 H   0  0  0  0  0  0  0  0  0  0  0  0
  -34.4328  -17.6409   -7.1392 H   0  0  0  0  0  0  0  0  0  0  0  0
  -32.7693  -17.5881   -6.5395 H   0  0  0  0  0  0  0  0  0  0  0  0
  -33.2736  -18.8563   -7.6553 H   0  0  0  0  0  0  0  0  0  0  0  0
  -31.5712  -16.7258  -10.0035 H   0  0  0  0  0  0  0  0  0  0  0  0
  -31.5540  -18.2988   -9.2144 H   0  0  0  0  0  0  0  0  0  0  0  0
  -30.9073  -16.8844   -8.3811 H   0  0  0  0  0  0  0  0  0  0  0  0
  -28.0195  -18.5822    4.2141 H   0  0  0  0  0  0  0  0  0  0  0  0
  -26.3120  -18.5577    4.6954 H   0  0  0  0  0  0  0  0  0  0  0  0
  -28.5959  -15.5175    5.9715 H   0  0  0  0  0  0  0  0  0  0  0  0
  -29.3776  -16.9664    5.3204 H   0  0  0  0  0  0  0  0  0  0  0  0
  -28.7163  -15.7299    4.2236 H   0  0  0  0  0  0  0  0  0  0  0  0
  1  2  2  0
  2  3  1  0
  2 32  1  0
  3  4  2  0
  3 33  1  0
  4  5  1  0
  5  6  2  0
  5  7  1  0
  7  8  1  0
  7 12  1  0
  8 13  1  0
  8  9  2  0
  9 10  1  0
 10 11  2  0
 10  4  1  0
 11  1  1  0
 11 34  1  0
 13 14  2  0
 14 15  1  0
 14 35  1  0
 15 16  2  0
 15 36  1  0
 16 19  1  0
 16 17  1  0
 17 18  2  0
 17 37  1  0
 18 13  1  0
 18 38  1  0
 19 20  1  0
 20 21  1  0
 20 39  1  0
 20 40  1  0
 21 22  1  0
 21 41  1  0
 21 42  1  0
 22 23  1  0
 22 24  1  0
 23 43  1  0
 23 44  1  0
 23 45  1  0
 24 46  1  0
 24 47  1  0
 24 48  1  0
 25 26  2  0
 25 27  1  0
 27  1  1  0
 27 28  1  0
 29 25  1  0
 29 49  1  0
 29 50  1  0
 30 31  1  0
 30 51  1  0
 30 52  1  0
 30 53  1  0
 31 29  1  0
M  END
>  <minimizedAffinity>  (2) 
-8.26624

>  <mol_id>  (2) 
9152

>  <source_index>  (2) 
1

>  <layer>  (2) 
L1

>  <uniprot>  (2) 
O95271

>  <paff>  (2) 
6

>  <smiles>  (2) 
COCC(=O)Nc1ccc2c(=O)[nH]c(-c3ccc(OCCN(C)C)cc3)nc2c1

>  <aimnet_interaction_kcal_mol>  (2) 
-52.303617188186728

$$$$
L1:O95271:9726
     RDKit          3D

 44 46  0  0  0  0  0  0  0  0999 V2000
  -25.6120  -13.5726   -4.1585 C   0  0  0  0  0  0  0  0  0  0  0  0
  -26.8087  -13.5446   -4.8851 C   0  0  0  0  0  0  0  0  0  0  0  0
  -27.9073  -14.2236   -4.4125 C   0  0  0  0  0  0  0  0  0  0  0  0
  -27.8550  -14.8524   -3.1694 C   0  0  0  0  0  0  0  0  0  0  0  0
  -28.9876  -15.6116   -2.6598 C   0  0  0  0  0  0  0  0  0  0  0  0
  -29.9616  -15.9862   -3.3082 O   0  0  0  0  0  0  0  0  0  0  0  0
  -28.8755  -15.8867   -1.2996 N   0  0  0  0  0  0  0  0  0  0  0  0
  -27.7687  -15.5890   -0.5413 C   0  0  0  0  0  0  0  0  0  0  0  0
  -26.6775  -15.1011   -1.0409 N   0  0  0  0  0  0  0  0  0  0  0  0
  -26.6946  -14.7427   -2.3706 C   0  0  0  0  0  0  0  0  0  0  0  0
  -25.5288  -14.2260   -2.9446 C   0  0  0  0  0  0  0  0  0  0  0  0
  -29.6593  -16.3597   -0.8728 H   0  0  0  0  0  0  0  0  0  0  0  0
  -27.8452  -15.8618    0.8932 C   0  0  0  0  0  0  0  0  0  0  0  0
  -28.9339  -15.4712    1.6687 C   0  0  0  0  0  0  0  0  0  0  0  0
  -28.9401  -15.7144    3.0291 C   0  0  0  0  0  0  0  0  0  0  0  0
  -27.8807  -16.3917    3.6186 C   0  0  0  0  0  0  0  0  0  0  0  0
  -26.8390  -16.8512    2.8191 C   0  0  0  0  0  0  0  0  0  0  0  0
  -26.7885  -16.5488    1.4771 C   0  0  0  0  0  0  0  0  0  0  0  0
  -27.7890  -16.6484    5.1032 C   0  0  0  0  0  0  0  0  0  0  0  0
  -27.6540  -18.1379    5.3592 C   0  0  0  0  0  0  0  0  0  0  0  0
  -28.9433  -16.0595    5.8867 C   0  0  0  0  0  0  0  0  0  0  0  0
  -26.5908  -16.0331    5.6166 O   0  0  0  0  0  0  0  0  0  0  0  0
  -25.9551  -15.9947    4.8879 H   0  0  0  0  0  0  0  0  0  0  0  0
  -22.2465  -12.7696   -5.6388 C   0  0  0  0  0  0  0  0  0  0  0  0
  -23.3406  -13.6009   -5.0155 C   0  0  0  0  0  0  0  0  0  0  0  0
  -23.2107  -14.8052   -4.8175 O   0  0  0  0  0  0  0  0  0  0  0  0
  -24.4758  -12.9216   -4.6991 N   0  0  0  0  0  0  0  0  0  0  0  0
  -24.5068  -11.9107   -4.7358 H   0  0  0  0  0  0  0  0  0  0  0  0
  -26.8610  -12.9974   -5.8154 H   0  0  0  0  0  0  0  0  0  0  0  0
  -28.8238  -14.2781   -4.9837 H   0  0  0  0  0  0  0  0  0  0  0  0
  -24.5807  -14.3510   -2.4418 H   0  0  0  0  0  0  0  0  0  0  0  0
  -29.7828  -14.9894    1.2041 H   0  0  0  0  0  0  0  0  0  0  0  0
  -29.7878  -15.3986    3.6183 H   0  0  0  0  0  0  0  0  0  0  0  0
  -26.0382  -17.4366    3.2531 H   0  0  0  0  0  0  0  0  0  0  0  0
  -25.9551  -16.8434    0.8586 H   0  0  0  0  0  0  0  0  0  0  0  0
  -28.5046  -18.7005    4.9902 H   0  0  0  0  0  0  0  0  0  0  0  0
  -27.5650  -18.2671    6.4301 H   0  0  0  0  0  0  0  0  0  0  0  0
  -26.7601  -18.5409    4.8921 H   0  0  0  0  0  0  0  0  0  0  0  0
  -29.8727  -16.5815    5.6628 H   0  0  0  0  0  0  0  0  0  0  0  0
  -29.0730  -14.9994    5.6960 H   0  0  0  0  0  0  0  0  0  0  0  0
  -28.7430  -16.1509    6.9500 H   0  0  0  0  0  0  0  0  0  0  0  0
  -21.4055  -13.4153   -5.8626 H   0  0  0  0  0  0  0  0  0  0  0  0
  -21.9245  -11.9796   -4.9605 H   0  0  0  0  0  0  0  0  0  0  0  0
  -22.5826  -12.2980   -6.5625 H   0  0  0  0  0  0  0  0  0  0  0  0
  1  2  2  0
  2  3  1  0
  2 29  1  0
  3  4  2  0
  3 30  1  0
  4  5  1  0
  5  6  2  0
  5  7  1  0
  7  8  1  0
  7 12  1  0
  8 13  1  0
  8  9  2  0
  9 10  1  0
 10 11  2  0
 10  4  1  0
 11  1  1  0
 11 31  1  0
 13 14  2  0
 14 15  1  0
 14 32  1  0
 15 16  2  0
 15 33  1  0
 16 19  1  0
 16 17  1  0
 17 18  2  0
 17 34  1  0
 18 13  1  0
 18 35  1  0
 19 20  1  0
 19 21  1  0
 19 22  1  0
 20 36  1  0
 20 37  1  0
 20 38  1  0
 21 39  1  0
 21 40  1  0
 21 41  1  0
 22 23  1  0
 24 25  1  0
 24 42  1  0
 24 43  1  0
 24 44  1  0
 25 26  2  0
 25 27  1  0
 27  1  1  0
 27 28  1  0
M  END
>  <minimizedAffinity>  (3) 
-11.43115

>  <mol_id>  (3) 
9726

>  <source_index>  (3) 
2

>  <layer>  (3) 
L1

>  <uniprot>  (3) 
O95271

>  <paff>  (3) 
7.0861999999999998

>  <smiles>  (3) 
CC(=O)Nc1ccc2c(=O)[nH]c(-c3ccc(C(C)(C)O)cc3)nc2c1

>  <aimnet_interaction_kcal_mol>  (3) 
-50.114294295252606

$$$$
L1:O95271:32927
     RDKit          3D

 55 59  0  0  0  0  0  0  0  0999 V2000
  -27.1003  -14.1997   -2.3478 C   0  0  0  0  0  0  0  0  0  0  0  0
  -27.8634  -14.9420   -1.4473 C   0  0  0  0  0  0  0  0  0  0  0  0
  -27.7986  -14.7457   -0.0768 C   0  0  0  0  0  0  0  0  0  0  0  0
  -26.9887  -13.7167    0.3847 C   0  0  0  0  0  0  0  0  0  0  0  0
  -26.1120  -13.0644   -0.4681 C   0  0  0  0  0  0  0  0  0  0  0  0
  -26.1297  -13.3567   -1.8205 C   0  0  0  0  0  0  0  0  0  0  0  0
  -25.1964  -12.8120   -2.6160 F   0  0  0  0  0  0  0  0  0  0  0  0
  -26.4816  -14.4565   -4.6432 O   0  0  0  0  0  0  0  0  0  0  0  0
  -27.3639  -14.2835   -3.8077 C   0  0  0  0  0  0  0  0  0  0  0  0
  -28.6746  -14.1821   -4.1696 N   0  0  0  0  0  0  0  0  0  0  0  0
  -29.0049  -14.4994   -5.5516 C   0  0  0  0  0  0  0  0  0  0  0  0
  -30.4794  -14.3064   -5.8009 C   0  0  0  0  0  0  0  0  0  0  0  0
  -30.8602  -12.9442   -5.4950 N   0  0  0  0  0  0  0  0  0  0  0  0
  -31.6634  -12.2600   -6.3589 C   0  0  0  0  0  0  0  0  0  0  0  0
  -32.2256  -12.8154   -7.3026 O   0  0  0  0  0  0  0  0  0  0  0  0
  -30.2985  -12.3726   -4.2836 C   0  0  0  0  0  0  0  0  0  0  0  0
  -29.6858  -13.4566   -3.4188 C   0  0  0  0  0  0  0  0  0  0  0  0
  -31.8374  -10.8081   -6.1024 C   0  0  0  0  0  0  0  0  0  0  0  0
  -32.3544   -9.9833   -7.2485 C   0  0  0  0  0  0  0  0  0  0  0  0
  -33.2556  -10.2879   -6.1177 C   0  0  0  0  0  0  0  0  0  0  0  0
  -28.6119  -15.6237    0.8201 C   0  0  0  0  0  0  0  0  0  0  0  0
  -27.9864  -16.0091    2.1328 C   0  0  0  0  0  0  0  0  0  0  0  0
  -26.8448  -16.6157    2.0171 N   0  0  0  0  0  0  0  0  0  0  0  0
  -26.2871  -17.1055    3.1330 N   0  0  0  0  0  0  0  0  0  0  0  0
  -26.7429  -17.0184    4.4351 C   0  0  0  0  0  0  0  0  0  0  0  0
  -26.0989  -17.5039    5.3635 O   0  0  0  0  0  0  0  0  0  0  0  0
  -27.9948  -16.3094    4.5629 C   0  0  0  0  0  0  0  0  0  0  0  0
  -28.5508  -16.1363    5.8263 C   0  0  0  0  0  0  0  0  0  0  0  0
  -29.7244  -15.4295    5.9610 C   0  0  0  0  0  0  0  0  0  0  0  0
  -30.3596  -14.9298    4.8227 C   0  0  0  0  0  0  0  0  0  0  0  0
  -29.8158  -15.0916    3.5718 C   0  0  0  0  0  0  0  0  0  0  0  0
  -28.6113  -15.7803    3.4188 C   0  0  0  0  0  0  0  0  0  0  0  0
  -25.3329  -17.3985    3.0021 H   0  0  0  0  0  0  0  0  0  0  0  0
  -28.5273  -15.7004   -1.8439 H   0  0  0  0  0  0  0  0  0  0  0  0
  -27.0484  -13.4229    1.4221 H   0  0  0  0  0  0  0  0  0  0  0  0
  -25.4099  -12.3269   -0.1087 H   0  0  0  0  0  0  0  0  0  0  0  0
  -28.7016  -15.5241   -5.7566 H   0  0  0  0  0  0  0  0  0  0  0  0
  -28.4234  -13.8507   -6.2069 H   0  0  0  0  0  0  0  0  0  0  0  0
  -31.0474  -15.0178   -5.1937 H   0  0  0  0  0  0  0  0  0  0  0  0
  -30.7330  -14.5012   -6.8357 H   0  0  0  0  0  0  0  0  0  0  0  0
  -31.0921  -11.8725   -3.7318 H   0  0  0  0  0  0  0  0  0  0  0  0
  -29.5342  -11.6241   -4.5054 H   0  0  0  0  0  0  0  0  0  0  0  0
  -30.4550  -14.1375   -3.0577 H   0  0  0  0  0  0  0  0  0  0  0  0
  -29.2351  -13.0092   -2.5438 H   0  0  0  0  0  0  0  0  0  0  0  0
  -31.1393  -10.3294   -5.4331 H   0  0  0  0  0  0  0  0  0  0  0  0
  -32.5230  -10.5207   -8.1682 H   0  0  0  0  0  0  0  0  0  0  0  0
  -31.9510   -8.9871   -7.3582 H   0  0  0  0  0  0  0  0  0  0  0  0
  -34.0255  -11.0253   -6.2866 H   0  0  0  0  0  0  0  0  0  0  0  0
  -33.5093   -9.5135   -5.4063 H   0  0  0  0  0  0  0  0  0  0  0  0
  -28.8003  -16.5477    0.2777 H   0  0  0  0  0  0  0  0  0  0  0  0
  -29.5920  -15.1763    0.9798 H   0  0  0  0  0  0  0  0  0  0  0  0
  -28.0172  -16.5263    6.6808 H   0  0  0  0  0  0  0  0  0  0  0  0
  -30.1635  -15.2136    6.9256 H   0  0  0  0  0  0  0  0  0  0  0  0
  -31.2860  -14.3909    4.9622 H   0  0  0  0  0  0  0  0  0  0  0  0
  -30.3309  -14.7268    2.7081 H   0  0  0  0  0  0  0  0  0  0  0  0
  1  2  2  0
  2  3  1  0
  2 34  1  0
  3 21  1  0
  3  4  2  0
  4  5  1  0
  4 35  1  0
  5  6  2  0
  5 36  1  0
  6  7  1  0
  6  1  1  0
  8  9  2  0
  9  1  1  0
  9 10  1  0
 10 11  1  0
 11 12  1  0
 11 37  1  0
 11 38  1  0
 12 13  1  0
 12 39  1  0
 12 40  1  0
 13 14  1  0
 13 16  1  0
 14 15  2  0
 14 18  1  0
 16 17  1  0
 16 41  1  0
 16 42  1  0
 17 10  1  0
 17 43  1  0
 17 44  1  0
 18 19  1  0
 18 45  1  0
 19 20  1  0
 19 46  1  0
 19 47  1  0
 20 18  1  0
 20 48  1  0
 20 49  1  0
 21 22  1  0
 21 50  1  0
 21 51  1  0
 22 23  2  0
 23 24  1  0
 24 25  1  0
 24 33  1  0
 25 26  2  0
 25 27  1  0
 27 28  2  0
 28 29  1  0
 28 52  1  0
 29 30  2  0
 29 53  1  0
 30 31  1  0
 30 54  1  0
 31 32  2  0
 31 55  1  0
 32 22  1  0
 32 27  1  0
M  END
>  <minimizedAffinity>  (4) 
-12.72737

>  <mol_id>  (4) 
32927

>  <source_index>  (4) 
3

>  <layer>  (4) 
L1

>  <uniprot>  (4) 
O95271

>  <paff>  (4) 
6.1917999999999997

>  <smiles>  (4) 
c1ccc2c(c1)C(=NNC2=O)Cc3ccc(c(c3)C(=O)N4CCN(CC4)C(=O)C5CC5)F

>  <aimnet_interaction_kcal_mol>  (4) 
-47.681735174464833

$$$$
L1:O95271:33996
     RDKit          3D

 45 47  0  0  0  0  0  0  0  0999 V2000
  -25.5409  -13.5124   -3.9400 C   0  0  0  0  0  0  0  0  0  0  0  0
  -26.7066  -13.3369   -4.6957 C   0  0  0  0  0  0  0  0  0  0  0  0
  -27.9141  -13.7150   -4.1632 C   0  0  0  0  0  0  0  0  0  0  0  0
  -27.9703  -14.2509   -2.8757 C   0  0  0  0  0  0  0  0  0  0  0  0
  -29.2542  -14.5896   -2.2916 C   0  0  0  0  0  0  0  0  0  0  0  0
  -30.3403  -14.4677   -2.8466 O   0  0  0  0  0  0  0  0  0  0  0  0
  -29.1546  -15.0778   -0.9908 N   0  0  0  0  0  0  0  0  0  0  0  0
  -27.9722  -15.1823   -0.2978 C   0  0  0  0  0  0  0  0  0  0  0  0
  -26.8192  -14.9029   -0.8228 N   0  0  0  0  0  0  0  0  0  0  0  0
  -26.7918  -14.4681   -2.1300 C   0  0  0  0  0  0  0  0  0  0  0  0
  -25.5593  -14.1941   -2.7365 C   0  0  0  0  0  0  0  0  0  0  0  0
  -30.0277  -15.3594   -0.5663 H   0  0  0  0  0  0  0  0  0  0  0  0
  -28.0386  -15.6435    1.0872 C   0  0  0  0  0  0  0  0  0  0  0  0
  -26.9630  -16.3776    1.5861 C   0  0  0  0  0  0  0  0  0  0  0  0
  -26.8885  -16.6412    2.9380 C   0  0  0  0  0  0  0  0  0  0  0  0
  -27.9117  -16.2607    3.7966 C   0  0  0  0  0  0  0  0  0  0  0  0
  -29.0094  -15.5825    3.2882 C   0  0  0  0  0  0  0  0  0  0  0  0
  -29.1005  -15.3335    1.9329 C   0  0  0  0  0  0  0  0  0  0  0  0
  -27.8476  -16.6410    5.2460 C   0  0  1  0  0  0  0  0  0  0  0  0
  -27.4593  -18.0915    5.4041 C   0  0  0  0  0  0  0  0  0  0  0  0
  -26.9093  -15.7742    5.9080 O   0  0  0  0  0  0  0  0  0  0  0  0
  -26.8053  -16.0466    6.8294 H   0  0  0  0  0  0  0  0  0  0  0  0
  -23.2216  -13.6374   -4.6772 C   0  0  0  0  0  0  0  0  0  0  0  0
  -23.1551  -14.8627   -4.6746 O   0  0  0  0  0  0  0  0  0  0  0  0
  -24.3398  -12.9262   -4.4100 N   0  0  0  0  0  0  0  0  0  0  0  0
  -24.2882  -11.9139   -4.4677 H   0  0  0  0  0  0  0  0  0  0  0  0
  -21.9925  -12.7891   -4.9836 C   0  0  0  0  0  0  0  0  0  0  0  0
  -21.8711  -11.3718   -3.0934 C   0  0  0  0  0  0  0  0  0  0  0  0
  -22.0733  -11.4587   -4.4926 O   0  0  0  0  0  0  0  0  0  0  0  0
  -26.6518  -12.8800   -5.6729 H   0  0  0  0  0  0  0  0  0  0  0  0
  -28.8370  -13.5897   -4.7121 H   0  0  0  0  0  0  0  0  0  0  0  0
  -24.6382  -14.5035   -2.2626 H   0  0  0  0  0  0  0  0  0  0  0  0
  -26.2021  -16.7127    0.8959 H   0  0  0  0  0  0  0  0  0  0  0  0
  -25.9941  -17.0933    3.3398 H   0  0  0  0  0  0  0  0  0  0  0  0
  -29.8119  -15.2727    3.9471 H   0  0  0  0  0  0  0  0  0  0  0  0
  -30.0086  -14.9139    1.5357 H   0  0  0  0  0  0  0  0  0  0  0  0
  -28.8365  -16.4784    5.6891 H   0  0  0  0  0  0  0  0  0  0  0  0
  -26.4332  -18.2549    5.0884 H   0  0  0  0  0  0  0  0  0  0  0  0
  -28.1021  -18.7505    4.8272 H   0  0  0  0  0  0  0  0  0  0  0  0
  -27.5338  -18.3485    6.4527 H   0  0  0  0  0  0  0  0  0  0  0  0
  -21.1204  -13.3134   -4.5868 H   0  0  0  0  0  0  0  0  0  0  0  0
  -21.8696  -12.7123   -6.0643 H   0  0  0  0  0  0  0  0  0  0  0  0
  -22.0529  -10.3403   -2.8106 H   0  0  0  0  0  0  0  0  0  0  0  0
  -20.8447  -11.6456   -2.8264 H   0  0  0  0  0  0  0  0  0  0  0  0
  -22.5539  -12.0211   -2.5441 H   0  0  0  0  0  0  0  0  0  0  0  0
  1  2  2  0
  2  3  1  0
  2 30  1  0
  3  4  2  0
  3 31  1  0
  4  5  1  0
  5  6  2  0
  5  7  1  0
  7  8  1  0
  7 12  1  0
  8 13  1  0
  8  9  2  0
  9 10  1  0
 10 11  2  0
 10  4  1  0
 11  1  1  0
 11 32  1  0
 13 14  2  0
 14 15  1  0
 14 33  1  0
 15 16  2  0
 15 34  1  0
 16 19  1  0
 16 17  1  0
 17 18  2  0
 17 35  1  0
 18 13  1  0
 18 36  1  0
 19 20  1  0
 19 21  1  0
 19 37  1  1
 20 38  1  0
 20 39  1  0
 20 40  1  0
 21 22  1  0
 23 24  2  0
 23 25  1  0
 25  1  1  0
 25 26  1  0
 27 23  1  0
 27 41  1  0
 27 42  1  0
 28 29  1  0
 28 43  1  0
 28 44  1  0
 28 45  1  0
 29 27  1  0
M  END
>  <minimizedAffinity>  (5) 
-10.10068

>  <mol_id>  (5) 
33996

>  <source_index>  (5) 
4

>  <layer>  (5) 
L1

>  <uniprot>  (5) 
O95271

>  <paff>  (5) 
6

>  <smiles>  (5) 
COCC(=O)Nc1ccc2c(=O)[nH]c(-c3ccc(C(C)O)cc3)nc2c1

>  <aimnet_interaction_kcal_mol>  (5) 
-51.254979926604499

$$$$
L1:O95271:39496
     RDKit          3D

 44 46  0  0  0  0  0  0  0  0999 V2000
  -26.2670  -13.5635   -3.0930 C   0  0  0  0  0  0  0  0  0  0  0  0
  -26.5409  -13.2114   -4.4025 C   0  0  0  0  0  0  0  0  0  0  0  0
  -27.6153  -13.7572   -5.1058 C   0  0  0  0  0  0  0  0  0  0  0  0
  -28.4199  -14.6946   -4.4994 C   0  0  0  0  0  0  0  0  0  0  0  0
  -28.1799  -15.0530   -3.1756 C   0  0  0  0  0  0  0  0  0  0  0  0
  -29.0440  -16.0256   -2.5233 C   0  0  0  0  0  0  0  0  0  0  0  0
  -29.9350  -16.6701   -3.0680 O   0  0  0  0  0  0  0  0  0  0  0  0
  -28.7684  -16.1586   -1.1743 N   0  0  0  0  0  0  0  0  0  0  0  0
  -27.7407  -15.5323   -0.5097 C   0  0  0  0  0  0  0  0  0  0  0  0
  -26.8773  -14.7778   -1.1167 N   0  0  0  0  0  0  0  0  0  0  0  0
  -27.1170  -14.4818   -2.4371 C   0  0  0  0  0  0  0  0  0  0  0  0
  -29.3537  -16.7948   -0.6525 H   0  0  0  0  0  0  0  0  0  0  0  0
  -27.7448  -15.7525    0.9406 C   0  0  0  0  0  0  0  0  0  0  0  0
  -26.6713  -16.3649    1.5727 C   0  0  0  0  0  0  0  0  0  0  0  0
  -26.7050  -16.5500    2.9385 C   0  0  0  0  0  0  0  0  0  0  0  0
  -27.8348  -16.2279    3.6839 C   0  0  0  0  0  0  0  0  0  0  0  0
  -28.9214  -15.6470    3.0416 C   0  0  0  0  0  0  0  0  0  0  0  0
  -28.8763  -15.4142    1.6813 C   0  0  0  0  0  0  0  0  0  0  0  0
  -27.8278  -16.5409    5.1621 C   0  0  0  0  0  0  0  0  0  0  0  0
  -27.6980  -18.0414    5.3611 C   0  0  0  0  0  0  0  0  0  0  0  0
  -29.0388  -15.9838    5.8865 C   0  0  0  0  0  0  0  0  0  0  0  0
  -26.6220  -15.9489    5.6904 O   0  0  0  0  0  0  0  0  0  0  0  0
  -26.7073  -15.8770    6.6502 H   0  0  0  0  0  0  0  0  0  0  0  0
  -22.5934  -12.9473   -2.6633 C   0  0  0  0  0  0  0  0  0  0  0  0
  -23.9285  -13.2383   -3.1222 N   0  0  0  0  0  0  0  0  0  0  0  0
  -25.0579  -13.0207   -2.4065 C   0  0  0  0  0  0  0  0  0  0  0  0
  -25.0777  -12.4151   -1.3405 O   0  0  0  0  0  0  0  0  0  0  0  0
  -24.0391  -13.6733   -4.0190 H   0  0  0  0  0  0  0  0  0  0  0  0
  -25.9271  -12.4549   -4.8709 H   0  0  0  0  0  0  0  0  0  0  0  0
  -27.8189  -13.4159   -6.1108 H   0  0  0  0  0  0  0  0  0  0  0  0
  -29.2440  -15.1666   -5.0146 H   0  0  0  0  0  0  0  0  0  0  0  0
  -25.8226  -16.6867    0.9852 H   0  0  0  0  0  0  0  0  0  0  0  0
  -25.8206  -16.8932    3.4508 H   0  0  0  0  0  0  0  0  0  0  0  0
  -29.8146  -15.3887    3.5892 H   0  0  0  0  0  0  0  0  0  0  0  0
  -29.7302  -14.9843    1.1771 H   0  0  0  0  0  0  0  0  0  0  0  0
  -28.5415  -18.5869    4.9543 H   0  0  0  0  0  0  0  0  0  0  0  0
  -27.6277  -18.2243    6.4280 H   0  0  0  0  0  0  0  0  0  0  0  0
  -26.7955  -18.4141    4.8867 H   0  0  0  0  0  0  0  0  0  0  0  0
  -29.9444  -16.5117    5.5934 H   0  0  0  0  0  0  0  0  0  0  0  0
  -29.1676  -14.9204    5.7129 H   0  0  0  0  0  0  0  0  0  0  0  0
  -28.9196  -16.1008    6.9616 H   0  0  0  0  0  0  0  0  0  0  0  0
  -22.5216  -11.9098   -2.3389 H   0  0  0  0  0  0  0  0  0  0  0  0
  -21.8992  -13.1044   -3.4848 H   0  0  0  0  0  0  0  0  0  0  0  0
  -22.3244  -13.5990   -1.8342 H   0  0  0  0  0  0  0  0  0  0  0  0
  1  2  2  0
  2  3  1  0
  2 29  1  0
  3  4  2  0
  3 30  1  0
  4  5  1  0
  4 31  1  0
  5  6  1  0
  6  7  2  0
  6  8  1  0
  8  9  1  0
  8 12  1  0
  9 13  1  0
  9 10  2  0
 10 11  1  0
 11  1  1  0
 11  5  2  0
 13 14  2  0
 14 15  1  0
 14 32  1  0
 15 16  2  0
 15 33  1  0
 16 19  1  0
 16 17  1  0
 17 18  2  0
 17 34  1  0
 18 13  1  0
 18 35  1  0
 19 20  1  0
 19 21  1  0
 19 22  1  0
 20 36  1  0
 20 37  1  0
 20 38  1  0
 21 39  1  0
 21 40  1  0
 21 41  1  0
 22 23  1  0
 24 25  1  0
 24 42  1  0
 24 43  1  0
 24 44  1  0
 25 26  1  0
 25 28  1  0
 26 27  2  0
 26  1  1  0
M  END
>  <minimizedAffinity>  (6) 
-11.17961

>  <mol_id>  (6) 
39496

>  <source_index>  (6) 
5

>  <layer>  (6) 
L1

>  <uniprot>  (6) 
O95271

>  <paff>  (6) 
7.2675999999999998

>  <smiles>  (6) 
CNC(=O)c1cccc2c(=O)[nH]c(-c3ccc(C(C)(C)O)cc3)nc12

>  <aimnet_interaction_kcal_mol>  (6) 
-46.313712711647973

$$$$
L1:O95271:67393
     RDKit          3D

 58 60  0  0  0  0  0  0  0  0999 V2000
  -25.7827  -13.4304   -3.1267 C   0  0  0  0  0  0  0  0  0  0  0  0
  -25.9293  -13.1165   -4.4621 C   0  0  0  0  0  0  0  0  0  0  0  0
  -27.0029  -13.5860   -5.2154 C   0  0  0  0  0  0  0  0  0  0  0  0
  -27.9046  -14.4597   -4.6519 C   0  0  0  0  0  0  0  0  0  0  0  0
  -27.7522  -14.8416   -3.3183 C   0  0  0  0  0  0  0  0  0  0  0  0
  -28.6607  -15.8135   -2.7335 C   0  0  0  0  0  0  0  0  0  0  0  0
  -29.5422  -16.4249   -3.3309 O   0  0  0  0  0  0  0  0  0  0  0  0
  -28.4431  -16.0077   -1.3758 N   0  0  0  0  0  0  0  0  0  0  0  0
  -27.4677  -15.3788   -0.6378 C   0  0  0  0  0  0  0  0  0  0  0  0
  -26.6059  -14.5644   -1.1657 N   0  0  0  0  0  0  0  0  0  0  0  0
  -26.7194  -14.2958   -2.5203 C   0  0  0  0  0  0  0  0  0  0  0  0
  -29.0269  -16.6978   -0.9237 H   0  0  0  0  0  0  0  0  0  0  0  0
  -27.5262  -15.6662    0.8048 C   0  0  0  0  0  0  0  0  0  0  0  0
  -28.6871  -15.3622    1.5128 C   0  0  0  0  0  0  0  0  0  0  0  0
  -28.7962  -15.6685    2.8573 C   0  0  0  0  0  0  0  0  0  0  0  0
  -27.7275  -16.2511    3.5288 C   0  0  0  0  0  0  0  0  0  0  0  0
  -26.5697  -16.5480    2.8131 C   0  0  0  0  0  0  0  0  0  0  0  0
  -26.4825  -16.3077    1.4574 C   0  0  0  0  0  0  0  0  0  0  0  0
  -27.7693  -16.5847    5.0078 C   0  0  0  0  0  0  0  0  0  0  0  0
  -29.0041  -16.0334    5.7010 C   0  0  0  0  0  0  0  0  0  0  0  0
  -27.6491  -18.0871    5.1956 C   0  0  0  0  0  0  0  0  0  0  0  0
  -26.5815  -16.0042    5.5917 O   0  0  0  0  0  0  0  0  0  0  0  0
  -26.7281  -15.9058    6.5416 H   0  0  0  0  0  0  0  0  0  0  0  0
  -24.6534  -12.8332   -2.3484 C   0  0  0  0  0  0  0  0  0  0  0  0
  -22.4735  -12.4987   -3.4564 C   0  0  0  0  0  0  0  0  0  0  0  0
  -22.5334  -11.2668   -3.4934 O   0  0  0  0  0  0  0  0  0  0  0  0
  -23.3550  -13.2932   -2.8229 N   0  0  0  0  0  0  0  0  0  0  0  0
  -23.0568  -14.2266   -2.5511 H   0  0  0  0  0  0  0  0  0  0  0  0
  -21.9020  -13.5816   -5.6077 C   0  0  0  0  0  0  0  0  0  0  0  0
  -21.3779  -13.2534   -4.2181 C   0  0  2  0  0  0  0  0  0  0  0  0
  -20.9463  -14.4319   -3.4660 N   0  0  0  0  0  0  0  0  0  0  0  0
  -20.1550  -15.3664   -4.2382 C   0  0  0  0  0  0  0  0  0  0  0  0
  -20.2401  -14.0458   -2.2558 C   0  0  0  0  0  0  0  0  0  0  0  0
  -25.2081  -12.4515   -4.9125 H   0  0  0  0  0  0  0  0  0  0  0  0
  -27.1266  -13.2354   -6.2303 H   0  0  0  0  0  0  0  0  0  0  0  0
  -28.7354  -14.8673   -5.2107 H   0  0  0  0  0  0  0  0  0  0  0  0
  -29.5131  -14.8953    0.9941 H   0  0  0  0  0  0  0  0  0  0  0  0
  -29.7254  -15.4633    3.3673 H   0  0  0  0  0  0  0  0  0  0  0  0
  -25.7111  -16.9302    3.3420 H   0  0  0  0  0  0  0  0  0  0  0  0
  -25.6239  -16.6280    0.8881 H   0  0  0  0  0  0  0  0  0  0  0  0
  -29.9018  -16.5436    5.3598 H   0  0  0  0  0  0  0  0  0  0  0  0
  -29.1146  -14.9653    5.5422 H   0  0  0  0  0  0  0  0  0  0  0  0
  -28.9281  -16.1795    6.7770 H   0  0  0  0  0  0  0  0  0  0  0  0
  -28.4862  -18.6209    4.7652 H   0  0  0  0  0  0  0  0  0  0  0  0
  -27.6024  -18.2888    6.2602 H   0  0  0  0  0  0  0  0  0  0  0  0
  -26.7387  -18.4592    4.7370 H   0  0  0  0  0  0  0  0  0  0  0  0
  -24.6731  -11.7501   -2.4473 H   0  0  0  0  0  0  0  0  0  0  0  0
  -24.7610  -13.0949   -1.3018 H   0  0  0  0  0  0  0  0  0  0  0  0
  -22.3825  -12.7052   -6.0403 H   0  0  0  0  0  0  0  0  0  0  0  0
  -22.6342  -14.3861   -5.5679 H   0  0  0  0  0  0  0  0  0  0  0  0
  -21.1036  -13.8851   -6.2780 H   0  0  0  0  0  0  0  0  0  0  0  0
  -20.5482  -12.5380   -4.3245 H   0  0  0  0  0  0  0  0  0  0  0  0
  -20.7366  -15.7943   -5.0477 H   0  0  0  0  0  0  0  0  0  0  0  0
  -19.8390  -16.1835   -3.5930 H   0  0  0  0  0  0  0  0  0  0  0  0
  -19.2471  -14.9116   -4.6682 H   0  0  0  0  0  0  0  0  0  0  0  0
  -20.8095  -13.2910   -1.7155 H   0  0  0  0  0  0  0  0  0  0  0  0
  -19.2379  -13.6321   -2.4597 H   0  0  0  0  0  0  0  0  0  0  0  0
  -20.1354  -14.9077   -1.6024 H   0  0  0  0  0  0  0  0  0  0  0  0
  1  2  2  0
  2  3  1  0
  2 34  1  0
  3  4  2  0
  3 35  1  0
  4  5  1  0
  4 36  1  0
  5  6  1  0
  6  7  2  0
  6  8  1  0
  8  9  1  0
  8 12  1  0
  9 13  1  0
  9 10  2  0
 10 11  1  0
 11  1  1  0
 11  5  2  0
 13 14  2  0
 14 15  1  0
 14 37  1  0
 15 16  2  0
 15 38  1  0
 16 19  1  0
 16 17  1  0
 17 18  2  0
 17 39  1  0
 18 13  1  0
 18 40  1  0
 19 20  1  0
 19 21  1  0
 19 22  1  0
 20 41  1  0
 20 42  1  0
 20 43  1  0
 21 44  1  0
 21 45  1  0
 21 46  1  0
 22 23  1  0
 24  1  1  0
 24 47  1  0
 24 48  1  0
 25 26  2  0
 25 27  1  0
 27 24  1  0
 27 28  1  0
 29 30  1  0
 29 49  1  0
 29 50  1  0
 29 51  1  0
 30 25  1  0
 30 31  1  0
 30 52  1  6
 31 32  1  0
 31 33  1  0
 32 53  1  0
 32 54  1  0
 32 55  1  0
 33 56  1  0
 33 57  1  0
 33 58  1  0
M  END
>  <minimizedAffinity>  (7) 
-10.85926

>  <mol_id>  (7) 
67393

>  <source_index>  (7) 
6

>  <layer>  (7) 
L1

>  <uniprot>  (7) 
O95271

>  <paff>  (7) 
6.5199999999999996

>  <smiles>  (7) 
CC(C(=O)NCc1cccc2c(=O)[nH]c(-c3ccc(C(C)(C)O)cc3)nc12)N(C)C

>  <aimnet_interaction_kcal_mol>  (7) 
-56.669935518370167

$$$$
L1:O95271:67395
     RDKit          3D

 48 50  0  0  0  0  0  0  0  0999 V2000
  -29.9330  -15.2919   -4.8586 C   0  0  0  0  0  0  0  0  0  0  0  0
  -29.0159  -14.3636   -5.3806 C   0  0  0  0  0  0  0  0  0  0  0  0
  -27.8170  -14.1759   -4.7321 C   0  0  0  0  0  0  0  0  0  0  0  0
  -27.5503  -14.8222   -3.5237 C   0  0  0  0  0  0  0  0  0  0  0  0
  -26.2315  -14.8411   -2.9153 C   0  0  0  0  0  0  0  0  0  0  0  0
  -25.1885  -14.4923   -3.4646 O   0  0  0  0  0  0  0  0  0  0  0  0
  -26.2454  -15.3180   -1.5963 N   0  0  0  0  0  0  0  0  0  0  0  0
  -27.3928  -15.7072   -0.9396 C   0  0  0  0  0  0  0  0  0  0  0  0
  -28.5207  -15.9014   -1.5619 N   0  0  0  0  0  0  0  0  0  0  0  0
  -28.5793  -15.5420   -2.8825 C   0  0  0  0  0  0  0  0  0  0  0  0
  -29.7016  -15.8923   -3.6322 C   0  0  0  0  0  0  0  0  0  0  0  0
  -25.3293  -15.4567   -1.1742 H   0  0  0  0  0  0  0  0  0  0  0  0
  -27.3742  -15.8982    0.5144 C   0  0  0  0  0  0  0  0  0  0  0  0
  -28.5030  -15.5162    1.2406 C   0  0  0  0  0  0  0  0  0  0  0  0
  -28.6429  -15.8578    2.5740 C   0  0  0  0  0  0  0  0  0  0  0  0
  -27.6196  -16.5276    3.2353 C   0  0  0  0  0  0  0  0  0  0  0  0
  -26.5043  -16.9207    2.4972 C   0  0  0  0  0  0  0  0  0  0  0  0
  -26.3505  -16.5634    1.1773 C   0  0  0  0  0  0  0  0  0  0  0  0
  -27.6121  -16.8072    4.7271 C   0  0  0  0  0  0  0  0  0  0  0  0
  -28.8004  -16.2262    5.4635 C   0  0  0  0  0  0  0  0  0  0  0  0
  -27.4941  -18.2991    4.9778 C   0  0  0  0  0  0  0  0  0  0  0  0
  -26.4360  -16.2141    5.3153 O   0  0  0  0  0  0  0  0  0  0  0  0
  -25.8181  -16.0172    4.5968 H   0  0  0  0  0  0  0  0  0  0  0  0
  -31.6815  -15.2377   -6.6553 C   0  0  0  0  0  0  0  0  0  0  0  0
  -31.2780  -14.3351   -7.3711 O   0  0  0  0  0  0  0  0  0  0  0  0
  -31.0935  -15.6871   -5.5212 N   0  0  0  0  0  0  0  0  0  0  0  0
  -31.6006  -16.4389   -5.0819 H   0  0  0  0  0  0  0  0  0  0  0  0
  -32.9682  -15.9817   -6.9986 C   0  0  0  0  0  0  0  0  0  0  0  0
  -34.4968  -17.6635   -6.2951 C   0  0  0  0  0  0  0  0  0  0  0  0
  -33.2670  -16.9866   -6.0389 O   0  0  0  0  0  0  0  0  0  0  0  0
  -29.2504  -13.8270   -6.2832 H   0  0  0  0  0  0  0  0  0  0  0  0
  -27.0672  -13.5183   -5.1497 H   0  0  0  0  0  0  0  0  0  0  0  0
  -30.3651  -16.6478   -3.2359 H   0  0  0  0  0  0  0  0  0  0  0  0
  -29.2895  -14.9835    0.7227 H   0  0  0  0  0  0  0  0  0  0  0  0
  -29.5610  -15.6171    3.0889 H   0  0  0  0  0  0  0  0  0  0  0  0
  -25.7234  -17.5019    2.9746 H   0  0  0  0  0  0  0  0  0  0  0  0
  -25.4532  -16.8390    0.6544 H   0  0  0  0  0  0  0  0  0  0  0  0
  -29.7247  -16.7175    5.1735 H   0  0  0  0  0  0  0  0  0  0  0  0
  -28.9070  -15.1608    5.2887 H   0  0  0  0  0  0  0  0  0  0  0  0
  -28.6509  -16.3620    6.5323 H   0  0  0  0  0  0  0  0  0  0  0  0
  -28.3610  -18.8407    4.6242 H   0  0  0  0  0  0  0  0  0  0  0  0
  -27.3879  -18.4618    6.0438 H   0  0  0  0  0  0  0  0  0  0  0  0
  -26.6098  -18.6980    4.4934 H   0  0  0  0  0  0  0  0  0  0  0  0
  -33.7729  -15.2443   -7.0491 H   0  0  0  0  0  0  0  0  0  0  0  0
  -32.8501  -16.4198   -7.9924 H   0  0  0  0  0  0  0  0  0  0  0  0
  -34.6515  -18.3905   -5.5030 H   0  0  0  0  0  0  0  0  0  0  0  0
  -34.4571  -18.1785   -7.2569 H   0  0  0  0  0  0  0  0  0  0  0  0
  -35.3261  -16.9537   -6.2963 H   0  0  0  0  0  0  0  0  0  0  0  0
  1  2  2  0
  2  3  1  0
  2 31  1  0
  3  4  2  0
  3 32  1  0
  4  5  1  0
  5  6  2  0
  5  7  1  0
  7  8  1  0
  7 12  1  0
  8 13  1  0
  8  9  2  0
  9 10  1  0
 10 11  2  0
 10  4  1  0
 11  1  1  0
 11 33  1  0
 13 14  2  0
 14 15  1  0
 14 34  1  0
 15 16  2  0
 15 35  1  0
 16 19  1  0
 16 17  1  0
 17 18  2  0
 17 36  1  0
 18 13  1  0
 18 37  1  0
 19 20  1  0
 19 21  1  0
 19 22  1  0
 20 38  1  0
 20 39  1  0
 20 40  1  0
 21 41  1  0
 21 42  1  0
 21 43  1  0
 22 23  1  0
 24 25  2  0
 24 26  1  0
 26  1  1  0
 26 27  1  0
 28 24  1  0
 28 44  1  0
 28 45  1  0
 29 30  1  0
 29 46  1  0
 29 47  1  0
 29 48  1  0
 30 28  1  0
M  END
>  <minimizedAffinity>  (8) 
-10.33419

>  <mol_id>  (8) 
67395

>  <source_index>  (8) 
7

>  <layer>  (8) 
L1

>  <uniprot>  (8) 
O95271

>  <paff>  (8) 
6.1700999999999997

>  <smiles>  (8) 
COCC(=O)Nc1ccc2c(=O)[nH]c(-c3ccc(C(C)(C)O)cc3)nc2c1

>  <aimnet_interaction_kcal_mol>  (8) 
-49.866267021484084

$$$$
L1:O95271:67397
     RDKit          3D

 44 46  0  0  0  0  0  0  0  0999 V2000
  -28.8225  -15.8061    4.9164 C   0  0  0  0  0  0  0  0  0  0  0  0
  -28.3054  -16.0831    6.1693 C   0  0  0  0  0  0  0  0  0  0  0  0
  -27.1298  -16.8153    6.3097 C   0  0  0  0  0  0  0  0  0  0  0  0
  -26.5124  -17.3433    5.1988 C   0  0  0  0  0  0  0  0  0  0  0  0
  -27.0022  -17.0319    3.9337 C   0  0  0  0  0  0  0  0  0  0  0  0
  -26.3877  -17.5996    2.7544 C   0  0  0  0  0  0  0  0  0  0  0  0
  -25.4984  -18.4530    2.7748 O   0  0  0  0  0  0  0  0  0  0  0  0
  -26.8746  -17.0946    1.5666 N   0  0  0  0  0  0  0  0  0  0  0  0
  -27.8047  -16.0813    1.4952 C   0  0  0  0  0  0  0  0  0  0  0  0
  -28.4556  -15.6525    2.5377 N   0  0  0  0  0  0  0  0  0  0  0  0
  -28.0863  -16.1550    3.7582 C   0  0  0  0  0  0  0  0  0  0  0  0
  -26.5114  -17.5287    0.7092 H   0  0  0  0  0  0  0  0  0  0  0  0
  -27.9941  -15.5149    0.1594 C   0  0  0  0  0  0  0  0  0  0  0  0
  -29.2453  -15.0572   -0.2573 C   0  0  0  0  0  0  0  0  0  0  0  0
  -29.4011  -14.4998   -1.5137 C   0  0  0  0  0  0  0  0  0  0  0  0
  -28.3265  -14.3702   -2.3960 C   0  0  0  0  0  0  0  0  0  0  0  0
  -27.0827  -14.8209   -1.9682 C   0  0  0  0  0  0  0  0  0  0  0  0
  -26.9262  -15.4346   -0.7379 C   0  0  0  0  0  0  0  0  0  0  0  0
  -28.5617  -13.7549   -3.7697 C   0  0  0  0  0  0  0  0  0  0  0  0
  -29.5782  -14.5875   -4.5452 C   0  0  0  0  0  0  0  0  0  0  0  0
  -27.2832  -13.6370   -4.5857 C   0  0  0  0  0  0  0  0  0  0  0  0
  -29.1511  -12.4468   -3.5746 O   0  0  0  0  0  0  0  0  0  0  0  0
  -28.5048  -11.7668   -3.8112 H   0  0  0  0  0  0  0  0  0  0  0  0
  -32.1777  -14.3840    5.6615 C   0  0  0  0  0  0  0  0  0  0  0  0
  -31.1158  -15.4283    5.5890 C   0  0  0  0  0  0  0  0  0  0  0  0
  -31.1726  -16.4866    6.2105 O   0  0  0  0  0  0  0  0  0  0  0  0
  -30.0343  -15.1465    4.7811 N   0  0  0  0  0  0  0  0  0  0  0  0
  -30.1556  -14.6244    3.9237 H   0  0  0  0  0  0  0  0  0  0  0  0
  -28.8377  -15.7072    7.0321 H   0  0  0  0  0  0  0  0  0  0  0  0
  -26.6970  -16.9240    7.2914 H   0  0  0  0  0  0  0  0  0  0  0  0
  -25.6546  -17.9934    5.2639 H   0  0  0  0  0  0  0  0  0  0  0  0
  -30.0870  -15.1460    0.4149 H   0  0  0  0  0  0  0  0  0  0  0  0
  -30.3696  -14.1293   -1.8147 H   0  0  0  0  0  0  0  0  0  0  0  0
  -26.2098  -14.6954   -2.5881 H   0  0  0  0  0  0  0  0  0  0  0  0
  -25.9647  -15.8589   -0.4966 H   0  0  0  0  0  0  0  0  0  0  0  0
  -29.1951  -15.5940   -4.7114 H   0  0  0  0  0  0  0  0  0  0  0  0
  -29.7730  -14.1215   -5.5092 H   0  0  0  0  0  0  0  0  0  0  0  0
  -30.5208  -14.6585   -4.0128 H   0  0  0  0  0  0  0  0  0  0  0  0
  -26.8586  -14.6235   -4.7706 H   0  0  0  0  0  0  0  0  0  0  0  0
  -26.5376  -13.0258   -4.0866 H   0  0  0  0  0  0  0  0  0  0  0  0
  -27.5090  -13.1822   -5.5492 H   0  0  0  0  0  0  0  0  0  0  0  0
  -32.1626  -13.9817    6.6742 H   0  0  0  0  0  0  0  0  0  0  0  0
  -33.1502  -14.8341    5.4723 H   0  0  0  0  0  0  0  0  0  0  0  0
  -31.9981  -13.5688    4.9654 H   0  0  0  0  0  0  0  0  0  0  0  0
  1  2  2  0
  2  3  1  0
  2 29  1  0
  3  4  2  0
  3 30  1  0
  4  5  1  0
  4 31  1  0
  5  6  1  0
  6  7  2  0
  6  8  1  0
  8  9  1  0
  8 12  1  0
  9 13  1  0
  9 10  2  0
 10 11  1  0
 11  1  1  0
 11  5  2  0
 13 14  2  0
 14 15  1  0
 14 32  1  0
 15 16  2  0
 15 33  1  0
 16 19  1  0
 16 17  1  0
 17 18  2  0
 17 34  1  0
 18 13  1  0
 18 35  1  0
 19 20  1  0
 19 21  1  0
 19 22  1  0
 20 36  1  0
 20 37  1  0
 20 38  1  0
 21 39  1  0
 21 40  1  0
 21 41  1  0
 22 23  1  0
 24 25  1  0
 24 42  1  0
 24 43  1  0
 24 44  1  0
 25 26  2  0
 25 27  1  0
 27  1  1  0
 27 28  1  0
M  END
>  <minimizedAffinity>  (9) 
-12.61033

>  <mol_id>  (9) 
67397

>  <source_index>  (9) 
8

>  <layer>  (9) 
L1

>  <uniprot>  (9) 
O95271

>  <paff>  (9) 
7.2441000000000004

>  <smiles>  (9) 
CC(=O)Nc1cccc2c(=O)[nH]c(-c3ccc(C(C)(C)O)cc3)nc12

>  <aimnet_interaction_kcal_mol>  (9) 
-72.678895445522755

$$$$
L1:O95271:67399
     RDKit          3D

 51 53  0  0  0  0  0  0  0  0999 V2000
  -25.4893  -13.2672   -5.9810 C   0  0  0  0  0  0  0  0  0  0  0  0
  -26.4166  -13.6724   -5.1690 N   0  0  0  0  0  0  0  0  0  0  0  0
  -27.6618  -13.1231   -5.2772 C   0  0  0  0  0  0  0  0  0  0  0  0
  -28.6186  -13.5137   -4.3042 C   0  0  0  0  0  0  0  0  0  0  0  0
  -29.8939  -12.9789   -4.3541 C   0  0  0  0  0  0  0  0  0  0  0  0
  -30.2267  -12.0615   -5.3512 C   0  0  0  0  0  0  0  0  0  0  0  0
  -29.3049  -11.6531   -6.2938 C   0  0  0  0  0  0  0  0  0  0  0  0
  -28.0165  -12.1851   -6.2636 C   0  0  0  0  0  0  0  0  0  0  0  0
  -26.9996  -11.8028   -7.2317 C   0  0  0  0  0  0  0  0  0  0  0  0
  -27.1270  -10.9467   -8.1107 O   0  0  0  0  0  0  0  0  0  0  0  0
  -25.8099  -12.5144   -7.0965 N   0  0  0  0  0  0  0  0  0  0  0  0
  -25.1035  -12.3185   -7.7901 H   0  0  0  0  0  0  0  0  0  0  0  0
  -21.4499  -14.3021   -4.9731 C   0  0  0  0  0  0  0  0  0  0  0  0
  -22.4931  -14.3685   -4.0458 C   0  0  0  0  0  0  0  0  0  0  0  0
  -23.7809  -14.0180   -4.3883 C   0  0  0  0  0  0  0  0  0  0  0  0
  -24.0984  -13.5746   -5.6801 C   0  0  0  0  0  0  0  0  0  0  0  0
  -23.0597  -13.4966   -6.6074 C   0  0  0  0  0  0  0  0  0  0  0  0
  -21.7727  -13.8672   -6.2603 C   0  0  0  0  0  0  0  0  0  0  0  0
  -19.1009  -14.8287   -5.7448 C   0  0  0  0  0  0  0  0  0  0  0  0
  -20.0327  -14.6612   -4.5452 C   0  0  0  0  0  0  0  0  0  0  0  0
  -19.5024  -13.5380   -3.6433 C   0  0  0  0  0  0  0  0  0  0  0  0
  -20.0537  -15.9732   -3.7545 C   0  0  0  0  0  0  0  0  0  0  0  0
  -28.1660  -14.4210   -3.3569 N   0  0  0  0  0  0  0  0  0  0  0  0
  -28.6591  -14.7208   -2.1198 C   0  0  0  0  0  0  0  0  0  0  0  0
  -29.7979  -14.4844   -1.7484 O   0  0  0  0  0  0  0  0  0  0  0  0
  -27.2524  -14.7992   -3.5759 H   0  0  0  0  0  0  0  0  0  0  0  0
  -27.5881  -15.3884   -1.2456 C   0  0  2  0  0  0  0  0  0  0  0  0
  -27.1131  -16.5175   -1.9794 O   0  0  0  0  0  0  0  0  0  0  0  0
  -26.5313  -17.0664   -1.4200 H   0  0  0  0  0  0  0  0  0  0  0  0
  -28.1334  -15.7047    0.1336 C   0  0  0  0  0  0  0  0  0  0  0  0
  -27.1271  -16.1507    1.0408 O   0  0  0  0  0  0  0  0  0  0  0  0
  -26.8528  -17.0419    0.7828 H   0  0  0  0  0  0  0  0  0  0  0  0
  -30.6090  -13.2868   -3.6088 H   0  0  0  0  0  0  0  0  0  0  0  0
  -31.2284  -11.6562   -5.3770 H   0  0  0  0  0  0  0  0  0  0  0  0
  -29.5617  -10.9235   -7.0461 H   0  0  0  0  0  0  0  0  0  0  0  0
  -22.3101  -14.7007   -3.0344 H   0  0  0  0  0  0  0  0  0  0  0  0
  -24.5640  -14.0361   -3.6427 H   0  0  0  0  0  0  0  0  0  0  0  0
  -23.2408  -13.1844   -7.6271 H   0  0  0  0  0  0  0  0  0  0  0  0
  -21.0166  -13.8471   -7.0298 H   0  0  0  0  0  0  0  0  0  0  0  0
  -18.1141  -15.1326   -5.4003 H   0  0  0  0  0  0  0  0  0  0  0  0
  -18.9771  -13.8973   -6.2951 H   0  0  0  0  0  0  0  0  0  0  0  0
  -19.4660  -15.5908   -6.4272 H   0  0  0  0  0  0  0  0  0  0  0  0
  -18.4938  -13.7702   -3.3015 H   0  0  0  0  0  0  0  0  0  0  0  0
  -20.1351  -13.4080   -2.7660 H   0  0  0  0  0  0  0  0  0  0  0  0
  -19.4686  -12.5898   -4.1787 H   0  0  0  0  0  0  0  0  0  0  0  0
  -19.0365  -16.3037   -3.5495 H   0  0  0  0  0  0  0  0  0  0  0  0
  -20.5577  -16.7616   -4.3126 H   0  0  0  0  0  0  0  0  0  0  0  0
  -20.5599  -15.8554   -2.8021 H   0  0  0  0  0  0  0  0  0  0  0  0
  -26.7663  -14.6695   -1.1217 H   0  0  0  0  0  0  0  0  0  0  0  0
  -28.9479  -16.4211    0.0417 H   0  0  0  0  0  0  0  0  0  0  0  0
  -28.5501  -14.7892    0.5510 H   0  0  0  0  0  0  0  0  0  0  0  0
  1  2  2  0
  2  3  1  0
  3  4  2  0
  4 23  1  0
  4  5  1  0
  5  6  2  0
  5 33  1  0
  6  7  1  0
  6 34  1  0
  7  8  2  0
  7 35  1  0
  8  9  1  0
  8  3  1  0
  9 10  2  0
  9 11  1  0
 11  1  1  0
 11 12  1  0
 13 14  2  0
 14 15  1  0
 14 36  1  0
 15 16  2  0
 15 37  1  0
 16  1  1  0
 16 17  1  0
 17 18  2  0
 17 38  1  0
 18 13  1  0
 18 39  1  0
 19 20  1  0
 19 40  1  0
 19 41  1  0
 19 42  1  0
 20 21  1  0
 20 22  1  0
 20 13  1  0
 21 43  1  0
 21 44  1  0
 21 45  1  0
 22 46  1  0
 22 47  1  0
 22 48  1  0
 23 24  1  0
 23 26  1  0
 24 25  2  0
 24 27  1  0
 27 28  1  0
 27 30  1  0
 27 49  1  1
 28 29  1  0
 30 31  1  0
 30 50  1  0
 30 51  1  0
 31 32  1  0
M  END
>  <minimizedAffinity>  (10) 
-8.63244

>  <mol_id>  (10) 
67399

>  <source_index>  (10) 
9

>  <layer>  (10) 
L1

>  <uniprot>  (10) 
O95271

>  <paff>  (10) 
7.2999999999999998

>  <smiles>  (10) 
CC(C)(C)c1ccc(-c2nc3c(NC(=O)C(O)CO)cccc3c(=O)[nH]2)cc1

>  <aimnet_interaction_kcal_mol>  (10) 
-61.586735574904019

$$$$
