L1:O95271:3228
     RDKit          3D

 41 43  0  0  0  0  0  0  0  0999 V2000
  -25.5953  -13.6822   -4.1680 C   0  0  0  0  0  0  0  0  0  0  0  0
  -26.6876  -14.0350   -4.9650 C   0  0  0  0  0  0  0  0  0  0  0  0
  -27.7904  -14.6854   -4.4044 C   0  0  0  0  0  0  0  0  0  0  0  0
  -27.7936  -14.9815   -3.0405 C   0  0  0  0  0  0  0  0  0  0  0  0
  -28.9335  -15.6614   -2.4073 C   0  0  0  0  0  0  0  0  0  0  0  0
  -29.9334  -15.9915   -3.0330 O   0  0  0  0  0  0  0  0  0  0  0  0
  -28.8079  -15.8998   -1.0620 N   0  0  0  0  0  0  0  0  0  0  0  0
  -27.7023  -15.5391   -0.3248 C   0  0  0  0  0  0  0  0  0  0  0  0
  -26.6886  -14.9240   -0.8477 N   0  0  0  0  0  0  0  0  0  0  0  0
  -26.7163  -14.6389   -2.2241 C   0  0  0  0  0  0  0  0  0  0  0  0
  -25.6204  -13.9889   -2.7993 C   0  0  0  0  0  0  0  0  0  0  0  0
  -29.6121  -16.3349   -0.6363 H   0  0  0  0  0  0  0  0  0  0  0  0
  -27.7230  -15.8690    1.1258 C   0  0  0  0  0  0  0  0  0  0  0  0
  -26.7954  -16.7958    1.6167 C   0  0  0  0  0  0  0  0  0  0  0  0
  -26.7829  -17.1327    2.9731 C   0  0  0  0  0  0  0  0  0  0  0  0
  -27.7001  -16.5499    3.8602 C   0  0  0  0  0  0  0  0  0  0  0  0
  -28.6433  -15.6395    3.3575 C   0  0  0  0  0  0  0  0  0  0  0  0
  -28.6566  -15.2999    2.0002 C   0  0  0  0  0  0  0  0  0  0  0  0
  -27.7047  -16.9320    5.3217 C   0  0  0  0  0  0  0  0  0  0  0  0
  -28.9524  -17.1875    5.8042 F   0  0  0  0  0  0  0  0  0  0  0  0
  -27.1882  -15.9529    6.1133 F   0  0  0  0  0  0  0  0  0  0  0  0
  -26.9704  -18.0499    5.5804 F   0  0  0  0  0  0  0  0  0  0  0  0
  -23.2916  -13.5846   -5.1631 C   0  0  0  0  0  0  0  0  0  0  0  0
  -23.0374  -14.7788   -5.2850 O   0  0  0  0  0  0  0  0  0  0  0  0
  -24.4514  -13.0285   -4.6562 N   0  0  0  0  0  0  0  0  0  0  0  0
  -24.4459  -12.0097   -4.6486 H   0  0  0  0  0  0  0  0  0  0  0  0
  -22.2796  -12.5143   -5.5891 C   0  0  0  0  0  0  0  0  0  0  0  0
  -20.7503  -12.3873   -3.8045 C   0  0  0  0  0  0  0  0  0  0  0  0
  -21.8217  -11.7381   -4.4789 O   0  0  0  0  0  0  0  0  0  0  0  0
  -26.6799  -13.8141   -5.9731 H   0  0  0  0  0  0  0  0  0  0  0  0
  -28.5963  -14.9448   -4.9946 H   0  0  0  0  0  0  0  0  0  0  0  0
  -24.8160  -13.7302   -2.2068 H   0  0  0  0  0  0  0  0  0  0  0  0
  -26.1170  -17.2327    0.9733 H   0  0  0  0  0  0  0  0  0  0  0  0
  -26.0936  -17.8155    3.3247 H   0  0  0  0  0  0  0  0  0  0  0  0
  -29.3345  -15.2161    3.9962 H   0  0  0  0  0  0  0  0  0  0  0  0
  -29.3552  -14.6293    1.6433 H   0  0  0  0  0  0  0  0  0  0  0  0
  -21.4392  -12.9952   -6.0444 H   0  0  0  0  0  0  0  0  0  0  0  0
  -22.7664  -11.8538   -6.2758 H   0  0  0  0  0  0  0  0  0  0  0  0
  -20.4298  -11.7843   -2.9808 H   0  0  0  0  0  0  0  0  0  0  0  0
  -19.9346  -12.5273   -4.4827 H   0  0  0  0  0  0  0  0  0  0  0  0
  -21.0807  -13.3386   -3.4428 H   0  0  0  0  0  0  0  0  0  0  0  0
  1  2  2  0
  2  3  1  0
  2 30  1  0
  3  4  2  0
  3 31  1  0
  4  5  1  0
  5  6  2  0
  5  7  1  0
  7  8  1  0
  7 12  1  0
  8 13  1  0
  8  9  2  0
  9 10  1  0
 10 11  2  0
 10  4  1  0
 11  1  1  0
 11 32  1  0
 13 14  2  0
 14 15  1  0
 14 33  1  0
 15 16  2  0
 15 34  1  0
 16 19  1  0
 16 17  1  0
 17 18  2  0
 17 35  1  0
 18 13  1  0
 18 36  1  0
 19 20  1  0
 19 21  1  0
 19 22  1  0
 23 24  2  0
 23 25  1  0
 25  1  1  0
 25 26  1  0
 27 23  1  0
 27 37  1  0
 27 38  1  0
 28 29  1  0
 28 39  1  0
 28 40  1  0
 28 41  1  0
 29 27  1  0
M  END
>  <minimizedAffinity>  (1) 
-10.52971

>  <mol_id>  (1) 
3228

>  <source_index>  (1) 
0

>  <layer>  (1) 
L1

>  <uniprot>  (1) 
O95271

>  <paff>  (1) 
6

>  <smiles>  (1) 
COCC(=O)Nc1ccc2c(=O)[nH]c(-c3ccc(C(F)(F)F)cc3)nc2c1

$$$$
L1:O95271:9152
     RDKit          3D

 53 55  0  0  0  0  0  0  0  0999 V2000
  -27.6047  -15.5780    1.0831 C   0  0  0  0  0  0  0  0  0  0  0  0
  -26.7624  -14.4572    1.0655 C   0  0  0  0  0  0  0  0  0  0  0  0
  -26.6953  -13.6368   -0.0616 C   0  0  0  0  0  0  0  0  0  0  0  0
  -27.4772  -13.9438   -1.1757 C   0  0  0  0  0  0  0  0  0  0  0  0
  -27.4451  -13.1057   -2.3839 C   0  0  0  0  0  0  0  0  0  0  0  0
  -26.7425  -12.1054   -2.4681 O   0  0  0  0  0  0  0  0  0  0  0  0
  -28.2567  -13.5138   -3.4112 N   0  0  0  0  0  0  0  0  0  0  0  0
  -29.0576  -14.6322   -3.3486 C   0  0  0  0  0  0  0  0  0  0  0  0
  -29.1191  -15.3825   -2.2948 N   0  0  0  0  0  0  0  0  0  0  0  0
  -28.3237  -15.0527   -1.1838 C   0  0  0  0  0  0  0  0  0  0  0  0
  -28.3803  -15.8661   -0.0454 C   0  0  0  0  0  0  0  0  0  0  0  0
  -28.2536  -12.9091   -4.2181 H   0  0  0  0  0  0  0  0  0  0  0  0
  -29.8794  -14.9415   -4.5495 C   0  0  0  0  0  0  0  0  0  0  0  0
  -30.5436  -16.1652   -4.6986 C   0  0  0  0  0  0  0  0  0  0  0  0
  -31.3089  -16.4190   -5.8452 C   0  0  0  0  0  0  0  0  0  0  0  0
  -31.4217  -15.4519   -6.8446 C   0  0  0  0  0  0  0  0  0  0  0  0
  -30.7678  -14.2279   -6.6873 C   0  0  0  0  0  0  0  0  0  0  0  0
  -30.0056  -13.9681   -5.5455 C   0  0  0  0  0  0  0  0  0  0  0  0
  -32.1308  -15.5726   -8.0061 O   0  0  0  0  0  0  0  0  0  0  0  0
  -33.4563  -16.0983   -7.9162 C   0  0  0  0  0  0  0  0  0  0  0  0
  -33.5927  -17.3324   -8.8316 C   0  0  0  0  0  0  0  0  0  0  0  0
  -33.4716  -18.6745   -8.2303 N   0  0  0  0  0  0  0  0  0  0  0  0
  -34.0878  -18.7569   -6.9080 C   0  0  0  0  0  0  0  0  0  0  0  0
  -32.0949  -19.1579   -8.1915 C   0  0  0  0  0  0  0  0  0  0  0  0
  -26.6486  -17.2362    2.7095 C   0  0  0  0  0  0  0  0  0  0  0  0
  -25.5922  -17.5255    2.1590 O   0  0  0  0  0  0  0  0  0  0  0  0
  -27.6119  -16.3493    2.2590 N   0  0  0  0  0  0  0  0  0  0  0  0
  -28.4061  -16.2428    2.8854 H   0  0  0  0  0  0  0  0  0  0  0  0
  -27.0697  -17.9040    4.0245 C   0  0  0  0  0  0  0  0  0  0  0  0
  -27.4715  -16.8194    6.0845 C   0  0  0  0  0  0  0  0  0  0  0  0
  -26.4831  -17.2992    5.1772 O   0  0  0  0  0  0  0  0  0  0  0  0
  -26.1869  -14.2369    1.8933 H   0  0  0  0  0  0  0  0  0  0  0  0
  -26.0744  -12.8125   -0.0709 H   0  0  0  0  0  0  0  0  0  0  0  0
  -29.0026  -16.6894   -0.0386 H   0  0  0  0  0  0  0  0  0  0  0  0
  -30.4693  -16.8833   -3.9611 H   0  0  0  0  0  0  0  0  0  0  0  0
  -31.7911  -17.3253   -5.9507 H   0  0  0  0  0  0  0  0  0  0  0  0
  -30.8484  -13.5078   -7.4221 H   0  0  0  0  0  0  0  0  0  0  0  0
  -29.5349  -13.0561   -5.4370 H   0  0  0  0  0  0  0  0  0  0  0  0
  -34.1568  -15.3497   -8.2226 H   0  0  0  0  0  0  0  0  0  0  0  0
  -33.6544  -16.3854   -6.9047 H   0  0  0  0  0  0  0  0  0  0  0  0
  -32.8345  -17.2536   -9.5824 H   0  0  0  0  0  0  0  0  0  0  0  0
  -34.6049  -17.2912   -9.1761 H   0  0  0  0  0  0  0  0  0  0  0  0
  -35.0944  -18.3980   -6.9606 H   0  0  0  0  0  0  0  0  0  0  0  0
  -33.5314  -18.1584   -6.2173 H   0  0  0  0  0  0  0  0  0  0  0  0
  -34.0888  -19.7747   -6.5778 H   0  0  0  0  0  0  0  0  0  0  0  0
  -31.6648  -19.0883   -9.1688 H   0  0  0  0  0  0  0  0  0  0  0  0
  -32.0840  -20.1780   -7.8689 H   0  0  0  0  0  0  0  0  0  0  0  0
  -31.5267  -18.5617   -7.5084 H   0  0  0  0  0  0  0  0  0  0  0  0
  -28.1342  -17.8406    4.1121 H   0  0  0  0  0  0  0  0  0  0  0  0
  -26.7281  -18.9174    3.9893 H   0  0  0  0  0  0  0  0  0  0  0  0
  -26.9923  -16.3750    6.9317 H   0  0  0  0  0  0  0  0  0  0  0  0
  -28.0842  -17.6347    6.4083 H   0  0  0  0  0  0  0  0  0  0  0  0
  -28.0802  -16.0882    5.5949 H   0  0  0  0  0  0  0  0  0  0  0  0
  1  2  2  0
  2  3  1  0
  2 32  1  0
  3  4  2  0
  3 33  1  0
  4  5  1  0
  5  6  2  0
  5  7  1  0
  7  8  1  0
  7 12  1  0
  8 13  1  0
  8  9  2  0
  9 10  1  0
 10 11  2  0
 10  4  1  0
 11  1  1  0
 11 34  1  0
 13 14  2  0
 14 15  1  0
 14 35  1  0
 15 16  2  0
 15 36  1  0
 16 19  1  0
 16 17  1  0
 17 18  2  0
 17 37  1  0
 18 13  1  0
 18 38  1  0
 19 20  1  0
 20 21  1  0
 20 39  1  0
 20 40  1  0
 21 22  1  0
 21 41  1  0
 21 42  1  0
 22 23  1  0
 22 24  1  0
 23 43  1  0
 23 44  1  0
 23 45  1  0
 24 46  1  0
 24 47  1  0
 24 48  1  0
 25 26  2  0
 25 27  1  0
 27  1  1  0
 27 28  1  0
 29 25  1  0
 29 49  1  0
 29 50  1  0
 30 31  1  0
 30 51  1  0
 30 52  1  0
 30 53  1  0
 31 29  1  0
M  END
>  <minimizedAffinity>  (2) 
-8.26624

>  <mol_id>  (2) 
9152

>  <source_index>  (2) 
1

>  <layer>  (2) 
L1

>  <uniprot>  (2) 
O95271

>  <paff>  (2) 
6

>  <smiles>  (2) 
COCC(=O)Nc1ccc2c(=O)[nH]c(-c3ccc(OCCN(C)C)cc3)nc2c1

$$$$
L1:O95271:9726
     RDKit          3D

 44 46  0  0  0  0  0  0  0  0999 V2000
  -25.5672  -13.6650   -4.2336 C   0  0  0  0  0  0  0  0  0  0  0  0
  -26.6524  -14.0211   -5.0390 C   0  0  0  0  0  0  0  0  0  0  0  0
  -27.7631  -14.6657   -4.4862 C   0  0  0  0  0  0  0  0  0  0  0  0
  -27.7826  -14.9532   -3.1210 C   0  0  0  0  0  0  0  0  0  0  0  0
  -28.9308  -15.6263   -2.4956 C   0  0  0  0  0  0  0  0  0  0  0  0
  -29.9242  -15.9589   -3.1303 O   0  0  0  0  0  0  0  0  0  0  0  0
  -28.8197  -15.8554   -1.1476 N   0  0  0  0  0  0  0  0  0  0  0  0
  -27.7209  -15.4929   -0.4011 C   0  0  0  0  0  0  0  0  0  0  0  0
  -26.6997  -14.8841   -0.9175 N   0  0  0  0  0  0  0  0  0  0  0  0
  -26.7134  -14.6079   -2.2956 C   0  0  0  0  0  0  0  0  0  0  0  0
  -25.6095  -13.9637   -2.8630 C   0  0  0  0  0  0  0  0  0  0  0  0
  -29.6291  -16.2847   -0.7253 H   0  0  0  0  0  0  0  0  0  0  0  0
  -27.7594  -15.8145    1.0503 C   0  0  0  0  0  0  0  0  0  0  0  0
  -28.7230  -15.1968    1.8504 C   0  0  0  0  0  0  0  0  0  0  0  0
  -28.7874  -15.4793    3.2176 C   0  0  0  0  0  0  0  0  0  0  0  0
  -27.8831  -16.3721    3.8247 C   0  0  0  0  0  0  0  0  0  0  0  0
  -26.9158  -16.9780    3.0073 C   0  0  0  0  0  0  0  0  0  0  0  0
  -26.8487  -16.6998    1.6355 C   0  0  0  0  0  0  0  0  0  0  0  0
  -27.9985  -16.6532    5.3230 C   0  0  0  0  0  0  0  0  0  0  0  0
  -27.7365  -18.1096    5.7290 C   0  0  0  0  0  0  0  0  0  0  0  0
  -29.3744  -16.2208    5.8416 C   0  0  0  0  0  0  0  0  0  0  0  0
  -27.0136  -15.8715    6.0129 O   0  0  0  0  0  0  0  0  0  0  0  0
  -26.1896  -15.9326    5.4987 H   0  0  0  0  0  0  0  0  0  0  0  0
  -22.2056  -12.5620   -5.5337 C   0  0  0  0  0  0  0  0  0  0  0  0
  -23.2039  -13.5910   -5.0661 C   0  0  0  0  0  0  0  0  0  0  0  0
  -22.9138  -14.7807   -5.0286 O   0  0  0  0  0  0  0  0  0  0  0  0
  -24.4109  -13.0143   -4.7122 N   0  0  0  0  0  0  0  0  0  0  0  0
  -24.4752  -12.0078   -4.8061 H   0  0  0  0  0  0  0  0  0  0  0  0
  -26.6338  -13.8069   -6.0483 H   0  0  0  0  0  0  0  0  0  0  0  0
  -28.5629  -14.9270   -5.0837 H   0  0  0  0  0  0  0  0  0  0  0  0
  -24.8114  -13.7032   -2.2629 H   0  0  0  0  0  0  0  0  0  0  0  0
  -29.3894  -14.5298    1.4309 H   0  0  0  0  0  0  0  0  0  0  0  0
  -29.5124  -15.0244    3.7941 H   0  0  0  0  0  0  0  0  0  0  0  0
  -26.2424  -17.6398    3.4239 H   0  0  0  0  0  0  0  0  0  0  0  0
  -26.1242  -17.1501    1.0547 H   0  0  0  0  0  0  0  0  0  0  0  0
  -28.4445  -18.7481    5.2433 H   0  0  0  0  0  0  0  0  0  0  0  0
  -27.8367  -18.2077    6.7898 H   0  0  0  0  0  0  0  0  0  0  0  0
  -26.7456  -18.3885    5.4370 H   0  0  0  0  0  0  0  0  0  0  0  0
  -30.1360  -16.7860    5.3463 H   0  0  0  0  0  0  0  0  0  0  0  0
  -29.5185  -15.1790    5.6448 H   0  0  0  0  0  0  0  0  0  0  0  0
  -29.4293  -16.3955    6.8958 H   0  0  0  0  0  0  0  0  0  0  0  0
  -21.2893  -13.0478   -5.7968 H   0  0  0  0  0  0  0  0  0  0  0  0
  -22.0237  -11.8588   -4.7480 H   0  0  0  0  0  0  0  0  0  0  0  0
  -22.5955  -12.0492   -6.3881 H   0  0  0  0  0  0  0  0  0  0  0  0
  1  2  2  0
  2  3  1  0
  2 29  1  0
  3  4  2  0
  3 30  1  0
  4  5  1  0
  5  6  2  0
  5  7  1  0
  7  8  1  0
  7 12  1  0
  8 13  1  0
  8  9  2  0
  9 10  1  0
 10 11  2  0
 10  4  1  0
 11  1  1  0
 11 31  1  0
 13 14  2  0
 14 15  1  0
 14 32  1  0
 15 16  2  0
 15 33  1  0
 16 19  1  0
 16 17  1  0
 17 18  2  0
 17 34  1  0
 18 13  1  0
 18 35  1  0
 19 20  1  0
 19 21  1  0
 19 22  1  0
 20 36  1  0
 20 37  1  0
 20 38  1  0
 21 39  1  0
 21 40  1  0
 21 41  1  0
 22 23  1  0
 24 25  1  0
 24 42  1  0
 24 43  1  0
 24 44  1  0
 25 26  2  0
 25 27  1  0
 27  1  1  0
 27 28  1  0
M  END
>  <minimizedAffinity>  (3) 
-11.43115

>  <mol_id>  (3) 
9726

>  <source_index>  (3) 
2

>  <layer>  (3) 
L1

>  <uniprot>  (3) 
O95271

>  <paff>  (3) 
7.0861999999999998

>  <smiles>  (3) 
CC(=O)Nc1ccc2c(=O)[nH]c(-c3ccc(C(C)(C)O)cc3)nc2c1

$$$$
L1:O95271:32927
     RDKit          3D

 55 59  0  0  0  0  0  0  0  0999 V2000
  -27.0641  -13.8457   -2.1478 C   0  0  0  0  0  0  0  0  0  0  0  0
  -27.8624  -14.6422   -1.3158 C   0  0  0  0  0  0  0  0  0  0  0  0
  -27.7700  -14.5269    0.0796 C   0  0  0  0  0  0  0  0  0  0  0  0
  -26.8480  -13.6187    0.6242 C   0  0  0  0  0  0  0  0  0  0  0  0
  -26.0690  -12.8106   -0.2077 C   0  0  0  0  0  0  0  0  0  0  0  0
  -26.1904  -12.9179   -1.5894 C   0  0  0  0  0  0  0  0  0  0  0  0
  -25.4519  -12.1101   -2.3632 F   0  0  0  0  0  0  0  0  0  0  0  0
  -26.3160  -14.4596   -4.2438 O   0  0  0  0  0  0  0  0  0  0  0  0
  -27.2417  -13.9596   -3.6064 C   0  0  0  0  0  0  0  0  0  0  0  0
  -28.3972  -13.4714   -4.2049 N   0  0  0  0  0  0  0  0  0  0  0  0
  -28.5799  -13.7132   -5.6399 C   0  0  0  0  0  0  0  0  0  0  0  0
  -30.0373  -13.5688   -6.0898 C   0  0  0  0  0  0  0  0  0  0  0  0
  -30.6121  -12.2765   -5.7065 N   0  0  0  0  0  0  0  0  0  0  0  0
  -31.5747  -11.7044   -6.5237 C   0  0  0  0  0  0  0  0  0  0  0  0
  -32.0065  -12.2383   -7.5388 O   0  0  0  0  0  0  0  0  0  0  0  0
  -30.0990  -11.6613   -4.4792 C   0  0  0  0  0  0  0  0  0  0  0  0
  -29.4314  -12.6718   -3.5347 C   0  0  0  0  0  0  0  0  0  0  0  0
  -32.0837  -10.3609   -6.1261 C   0  0  0  0  0  0  0  0  0  0  0  0
  -31.4675   -9.1086   -6.7118 C   0  0  0  0  0  0  0  0  0  0  0  0
  -32.8494   -9.5168   -7.1207 C   0  0  0  0  0  0  0  0  0  0  0  0
  -28.6313  -15.3923    0.9726 C   0  0  0  0  0  0  0  0  0  0  0  0
  -27.8495  -16.0886    2.0793 C   0  0  0  0  0  0  0  0  0  0  0  0
  -26.7873  -16.7512    1.7226 N   0  0  0  0  0  0  0  0  0  0  0  0
  -26.0616  -17.3772    2.6863 N   0  0  0  0  0  0  0  0  0  0  0  0
  -26.3337  -17.3815    4.0320 C   0  0  0  0  0  0  0  0  0  0  0  0
  -25.6270  -17.9705    4.8422 O   0  0  0  0  0  0  0  0  0  0  0  0
  -27.5302  -16.6355    4.4534 C   0  0  0  0  0  0  0  0  0  0  0  0
  -27.8840  -16.5846    5.8075 C   0  0  0  0  0  0  0  0  0  0  0  0
  -29.0177  -15.8758    6.2005 C   0  0  0  0  0  0  0  0  0  0  0  0
  -29.7933  -15.2230    5.2438 C   0  0  0  0  0  0  0  0  0  0  0  0
  -29.4400  -15.2764    3.8916 C   0  0  0  0  0  0  0  0  0  0  0  0
  -28.3010  -15.9851    3.4914 C   0  0  0  0  0  0  0  0  0  0  0  0
  -25.2412  -17.8902    2.3782 H   0  0  0  0  0  0  0  0  0  0  0  0
  -28.5223  -15.3177   -1.7320 H   0  0  0  0  0  0  0  0  0  0  0  0
  -26.7448  -13.5474    1.6486 H   0  0  0  0  0  0  0  0  0  0  0  0
  -25.4048  -12.1354    0.2020 H   0  0  0  0  0  0  0  0  0  0  0  0
  -28.2509  -14.7066   -5.8630 H   0  0  0  0  0  0  0  0  0  0  0  0
  -28.0082  -12.9762   -6.1643 H   0  0  0  0  0  0  0  0  0  0  0  0
  -30.6151  -14.3493   -5.6404 H   0  0  0  0  0  0  0  0  0  0  0  0
  -30.0581  -13.6326   -7.1577 H   0  0  0  0  0  0  0  0  0  0  0  0
  -30.9143  -11.1992   -3.9629 H   0  0  0  0  0  0  0  0  0  0  0  0
  -29.3528  -10.9499   -4.7657 H   0  0  0  0  0  0  0  0  0  0  0  0
  -30.1818  -13.3322   -3.1531 H   0  0  0  0  0  0  0  0  0  0  0  0
  -28.9573  -12.1192   -2.7506 H   0  0  0  0  0  0  0  0  0  0  0  0
  -32.2665  -10.7261   -5.1371 H   0  0  0  0  0  0  0  0  0  0  0  0
  -30.6593   -9.1866   -7.4087 H   0  0  0  0  0  0  0  0  0  0  0  0
  -31.0323   -8.2199   -6.3047 H   0  0  0  0  0  0  0  0  0  0  0  0
  -33.0267   -9.8856   -8.1093 H   0  0  0  0  0  0  0  0  0  0  0  0
  -33.8068   -9.0391   -7.1257 H   0  0  0  0  0  0  0  0  0  0  0  0
  -29.1020  -16.1395    0.3685 H   0  0  0  0  0  0  0  0  0  0  0  0
  -29.3417  -14.7475    1.4463 H   0  0  0  0  0  0  0  0  0  0  0  0
  -27.3071  -17.0704    6.5119 H   0  0  0  0  0  0  0  0  0  0  0  0
  -29.2823  -15.8343    7.1971 H   0  0  0  0  0  0  0  0  0  0  0  0
  -30.6325  -14.6976    5.5347 H   0  0  0  0  0  0  0  0  0  0  0  0
  -30.0197  -14.7928    3.1880 H   0  0  0  0  0  0  0  0  0  0  0  0
  1  2  2  0
  2  3  1  0
  2 34  1  0
  3 21  1  0
  3  4  2  0
  4  5  1  0
  4 35  1  0
  5  6  2  0
  5 36  1  0
  6  7  1  0
  6  1  1  0
  8  9  2  0
  9  1  1  0
  9 10  1  0
 10 11  1  0
 11 12  1  0
 11 37  1  0
 11 38  1  0
 12 13  1  0
 12 39  1  0
 12 40  1  0
 13 14  1  0
 13 16  1  0
 14 15  2  0
 14 18  1  0
 16 17  1  0
 16 41  1  0
 16 42  1  0
 17 10  1  0
 17 43  1  0
 17 44  1  0
 18 19  1  0
 18 45  1  0
 19 20  1  0
 19 46  1  0
 19 47  1  0
 20 18  1  0
 20 48  1  0
 20 49  1  0
 21 22  1  0
 21 50  1  0
 21 51  1  0
 22 23  2  0
 23 24  1  0
 24 25  1  0
 24 33  1  0
 25 26  2  0
 25 27  1  0
 27 28  2  0
 28 29  1  0
 28 52  1  0
 29 30  2  0
 29 53  1  0
 30 31  1  0
 30 54  1  0
 31 32  2  0
 31 55  1  0
 32 22  1  0
 32 27  1  0
M  END
>  <minimizedAffinity>  (4) 
-12.72737

>  <mol_id>  (4) 
32927

>  <source_index>  (4) 
3

>  <layer>  (4) 
L1

>  <uniprot>  (4) 
O95271

>  <paff>  (4) 
6.1917999999999997

>  <smiles>  (4) 
c1ccc2c(c1)C(=NNC2=O)Cc3ccc(c(c3)C(=O)N4CCN(CC4)C(=O)C5CC5)F

$$$$
L1:O95271:33996
     RDKit          3D

 45 47  0  0  0  0  0  0  0  0999 V2000
  -25.5096  -13.5726   -4.2818 C   0  0  0  0  0  0  0  0  0  0  0  0
  -26.6877  -13.6873   -5.0334 C   0  0  0  0  0  0  0  0  0  0  0  0
  -27.8540  -14.1882   -4.4533 C   0  0  0  0  0  0  0  0  0  0  0  0
  -27.8363  -14.5776   -3.1135 C   0  0  0  0  0  0  0  0  0  0  0  0
  -29.0419  -15.1050   -2.4569 C   0  0  0  0  0  0  0  0  0  0  0  0
  -30.1114  -15.2142   -3.0450 O   0  0  0  0  0  0  0  0  0  0  0  0
  -28.8936  -15.4603   -1.1408 N   0  0  0  0  0  0  0  0  0  0  0  0
  -27.7080  -15.3431   -0.4496 C   0  0  0  0  0  0  0  0  0  0  0  0
  -26.6340  -14.8652   -0.9948 N   0  0  0  0  0  0  0  0  0  0  0  0
  -26.6770  -14.4760   -2.3446 C   0  0  0  0  0  0  0  0  0  0  0  0
  -25.5148  -13.9704   -2.9404 C   0  0  0  0  0  0  0  0  0  0  0  0
  -29.7359  -15.7886   -0.6940 H   0  0  0  0  0  0  0  0  0  0  0  0
  -27.7099  -15.7708    0.9767 C   0  0  0  0  0  0  0  0  0  0  0  0
  -26.8083  -16.7206    1.4692 C   0  0  0  0  0  0  0  0  0  0  0  0
  -26.8503  -17.0947    2.8167 C   0  0  0  0  0  0  0  0  0  0  0  0
  -27.7788  -16.5191    3.6969 C   0  0  0  0  0  0  0  0  0  0  0  0
  -28.6718  -15.5603    3.1960 C   0  0  0  0  0  0  0  0  0  0  0  0
  -28.6339  -15.1853    1.8499 C   0  0  0  0  0  0  0  0  0  0  0  0
  -27.8504  -16.9271    5.1527 C   0  0  1  0  0  0  0  0  0  0  0  0
  -27.3577  -18.3548    5.3547 C   0  0  0  0  0  0  0  0  0  0  0  0
  -27.0617  -16.0456    5.9499 O   0  0  0  0  0  0  0  0  0  0  0  0
  -27.2152  -16.2877    6.8782 H   0  0  0  0  0  0  0  0  0  0  0  0
  -23.2528  -13.7357   -5.3725 C   0  0  0  0  0  0  0  0  0  0  0  0
  -23.0177  -14.9328   -5.2530 O   0  0  0  0  0  0  0  0  0  0  0  0
  -24.3811  -13.0568   -4.9438 N   0  0  0  0  0  0  0  0  0  0  0  0
  -24.3571  -12.0552   -5.1193 H   0  0  0  0  0  0  0  0  0  0  0  0
  -22.2760  -12.8012   -6.0972 C   0  0  0  0  0  0  0  0  0  0  0  0
  -20.4436  -12.5679   -4.6244 C   0  0  0  0  0  0  0  0  0  0  0  0
  -21.5713  -11.9276   -5.2146 O   0  0  0  0  0  0  0  0  0  0  0  0
  -26.6924  -13.3988   -6.0242 H   0  0  0  0  0  0  0  0  0  0  0  0
  -28.7198  -14.2697   -5.0090 H   0  0  0  0  0  0  0  0  0  0  0  0
  -24.6504  -13.8901   -2.3824 H   0  0  0  0  0  0  0  0  0  0  0  0
  -26.1115  -17.1457    0.8378 H   0  0  0  0  0  0  0  0  0  0  0  0
  -26.1886  -17.8044    3.1683 H   0  0  0  0  0  0  0  0  0  0  0  0
  -29.3637  -15.1274    3.8276 H   0  0  0  0  0  0  0  0  0  0  0  0
  -29.2914  -14.4721    1.4977 H   0  0  0  0  0  0  0  0  0  0  0  0
  -28.8760  -16.8722    5.4529 H   0  0  0  0  0  0  0  0  0  0  0  0
  -26.3320  -18.4235    5.0579 H   0  0  0  0  0  0  0  0  0  0  0  0
  -27.9463  -19.0226    4.7610 H   0  0  0  0  0  0  0  0  0  0  0  0
  -27.4488  -18.6208    6.3871 H   0  0  0  0  0  0  0  0  0  0  0  0
  -21.5625  -13.3988   -6.6251 H   0  0  0  0  0  0  0  0  0  0  0  0
  -22.8539  -12.1876   -6.7564 H   0  0  0  0  0  0  0  0  0  0  0  0
  -19.9447  -11.8818   -3.9723 H   0  0  0  0  0  0  0  0  0  0  0  0
  -19.7697  -12.8834   -5.3933 H   0  0  0  0  0  0  0  0  0  0  0  0
  -20.7695  -13.4194   -4.0644 H   0  0  0  0  0  0  0  0  0  0  0  0
  1  2  2  0
  2  3  1  0
  2 30  1  0
  3  4  2  0
  3 31  1  0
  4  5  1  0
  5  6  2  0
  5  7  1  0
  7  8  1  0
  7 12  1  0
  8 13  1  0
  8  9  2  0
  9 10  1  0
 10 11  2  0
 10  4  1  0
 11  1  1  0
 11 32  1  0
 13 14  2  0
 14 15  1  0
 14 33  1  0
 15 16  2  0
 15 34  1  0
 16 19  1  0
 16 17  1  0
 17 18  2  0
 17 35  1  0
 18 13  1  0
 18 36  1  0
 19 20  1  0
 19 21  1  0
 19 37  1  1
 20 38  1  0
 20 39  1  0
 20 40  1  0
 21 22  1  0
 23 24  2  0
 23 25  1  0
 25  1  1  0
 25 26  1  0
 27 23  1  0
 27 41  1  0
 27 42  1  0
 28 29  1  0
 28 43  1  0
 28 44  1  0
 28 45  1  0
 29 27  1  0
M  END
>  <minimizedAffinity>  (5) 
-10.10068

>  <mol_id>  (5) 
33996

>  <source_index>  (5) 
4

>  <layer>  (5) 
L1

>  <uniprot>  (5) 
O95271

>  <paff>  (5) 
6

>  <smiles>  (5) 
COCC(=O)Nc1ccc2c(=O)[nH]c(-c3ccc(C(C)O)cc3)nc2c1

$$$$
L1:O95271:39496
     RDKit          3D

 44 46  0  0  0  0  0  0  0  0999 V2000
  -25.8694  -13.7326   -3.1422 C   0  0  0  0  0  0  0  0  0  0  0  0
  -25.9316  -13.4813   -4.5290 C   0  0  0  0  0  0  0  0  0  0  0  0
  -26.9439  -14.0269   -5.3181 C   0  0  0  0  0  0  0  0  0  0  0  0
  -27.9103  -14.8326   -4.7305 C   0  0  0  0  0  0  0  0  0  0  0  0
  -27.8552  -15.0832   -3.3543 C   0  0  0  0  0  0  0  0  0  0  0  0
  -28.8817  -15.9322   -2.7255 C   0  0  0  0  0  0  0  0  0  0  0  0
  -29.7992  -16.4333   -3.3641 O   0  0  0  0  0  0  0  0  0  0  0  0
  -28.7522  -16.1243   -1.3765 N   0  0  0  0  0  0  0  0  0  0  0  0
  -27.7427  -15.5723   -0.6286 C   0  0  0  0  0  0  0  0  0  0  0  0
  -26.8281  -14.8133   -1.1436 N   0  0  0  0  0  0  0  0  0  0  0  0
  -26.8496  -14.5459   -2.5346 C   0  0  0  0  0  0  0  0  0  0  0  0
  -29.4813  -16.6800   -0.9529 H   0  0  0  0  0  0  0  0  0  0  0  0
  -27.7513  -15.8673    0.8266 C   0  0  0  0  0  0  0  0  0  0  0  0
  -26.8250  -16.7407    1.4014 C   0  0  0  0  0  0  0  0  0  0  0  0
  -26.8630  -16.9934    2.7771 C   0  0  0  0  0  0  0  0  0  0  0  0
  -27.8176  -16.3807    3.6074 C   0  0  0  0  0  0  0  0  0  0  0  0
  -28.7324  -15.4938    3.0114 C   0  0  0  0  0  0  0  0  0  0  0  0
  -28.6989  -15.2362    1.6374 C   0  0  0  0  0  0  0  0  0  0  0  0
  -27.8584  -16.6544    5.1108 C   0  0  0  0  0  0  0  0  0  0  0  0
  -27.5550  -18.1275    5.4128 C   0  0  0  0  0  0  0  0  0  0  0  0
  -29.2130  -16.2460    5.7028 C   0  0  0  0  0  0  0  0  0  0  0  0
  -26.8541  -15.8755    5.7741 O   0  0  0  0  0  0  0  0  0  0  0  0
  -26.9132  -16.0647    6.7255 H   0  0  0  0  0  0  0  0  0  0  0  0
  -22.2995  -12.7130   -2.2976 C   0  0  0  0  0  0  0  0  0  0  0  0
  -23.4649  -13.2860   -2.9120 N   0  0  0  0  0  0  0  0  0  0  0  0
  -24.7278  -13.0957   -2.4062 C   0  0  0  0  0  0  0  0  0  0  0  0
  -24.9369  -12.4262   -1.3980 O   0  0  0  0  0  0  0  0  0  0  0  0
  -23.3739  -13.8608   -3.7485 H   0  0  0  0  0  0  0  0  0  0  0  0
  -25.2146  -12.8826   -4.9678 H   0  0  0  0  0  0  0  0  0  0  0  0
  -26.9745  -13.8333   -6.3313 H   0  0  0  0  0  0  0  0  0  0  0  0
  -28.6634  -15.2435   -5.3040 H   0  0  0  0  0  0  0  0  0  0  0  0
  -26.1130  -17.1993    0.8117 H   0  0  0  0  0  0  0  0  0  0  0  0
  -26.1760  -17.6430    3.1907 H   0  0  0  0  0  0  0  0  0  0  0  0
  -29.4403  -15.0252    3.5982 H   0  0  0  0  0  0  0  0  0  0  0  0
  -29.3759  -14.5781    1.2207 H   0  0  0  0  0  0  0  0  0  0  0  0
  -28.2843  -18.7472    4.9343 H   0  0  0  0  0  0  0  0  0  0  0  0
  -27.5881  -18.2890    6.4700 H   0  0  0  0  0  0  0  0  0  0  0  0
  -26.5810  -18.3738    5.0447 H   0  0  0  0  0  0  0  0  0  0  0  0
  -29.9922  -16.8078    5.2315 H   0  0  0  0  0  0  0  0  0  0  0  0
  -29.3751  -15.2017    5.5355 H   0  0  0  0  0  0  0  0  0  0  0  0
  -29.2168  -16.4436    6.7544 H   0  0  0  0  0  0  0  0  0  0  0  0
  -22.5915  -12.1466   -1.4380 H   0  0  0  0  0  0  0  0  0  0  0  0
  -21.8067  -12.0708   -2.9973 H   0  0  0  0  0  0  0  0  0  0  0  0
  -21.6324  -13.4948   -1.9999 H   0  0  0  0  0  0  0  0  0  0  0  0
  1  2  2  0
  2  3  1  0
  2 29  1  0
  3  4  2  0
  3 30  1  0
  4  5  1  0
  4 31  1  0
  5  6  1  0
  6  7  2  0
  6  8  1  0
  8  9  1  0
  8 12  1  0
  9 13  1  0
  9 10  2  0
 10 11  1  0
 11  1  1  0
 11  5  2  0
 13 14  2  0
 14 15  1  0
 14 32  1  0
 15 16  2  0
 15 33  1  0
 16 19  1  0
 16 17  1  0
 17 18  2  0
 17 34  1  0
 18 13  1  0
 18 35  1  0
 19 20  1  0
 19 21  1  0
 19 22  1  0
 20 36  1  0
 20 37  1  0
 20 38  1  0
 21 39  1  0
 21 40  1  0
 21 41  1  0
 22 23  1  0
 24 25  1  0
 24 42  1  0
 24 43  1  0
 24 44  1  0
 25 26  1  0
 25 28  1  0
 26 27  2  0
 26  1  1  0
M  END
>  <minimizedAffinity>  (6) 
-11.17961

>  <mol_id>  (6) 
39496

>  <source_index>  (6) 
5

>  <layer>  (6) 
L1

>  <uniprot>  (6) 
O95271

>  <paff>  (6) 
7.2675999999999998

>  <smiles>  (6) 
CNC(=O)c1cccc2c(=O)[nH]c(-c3ccc(C(C)(C)O)cc3)nc12

$$$$
L1:O95271:67393
     RDKit          3D

 58 60  0  0  0  0  0  0  0  0999 V2000
  -25.9408  -13.6262   -2.9532 C   0  0  0  0  0  0  0  0  0  0  0  0
  -25.9330  -13.4027   -4.3439 C   0  0  0  0  0  0  0  0  0  0  0  0
  -26.8813  -14.0026   -5.1729 C   0  0  0  0  0  0  0  0  0  0  0  0
  -27.8446  -14.8430   -4.6243 C   0  0  0  0  0  0  0  0  0  0  0  0
  -27.8429  -15.0803   -3.2461 C   0  0  0  0  0  0  0  0  0  0  0  0
  -28.8414  -15.9754   -2.6400 C   0  0  0  0  0  0  0  0  0  0  0  0
  -29.7152  -16.5284   -3.2977 O   0  0  0  0  0  0  0  0  0  0  0  0
  -28.7361  -16.1541   -1.2851 N   0  0  0  0  0  0  0  0  0  0  0  0
  -27.7705  -15.5518   -0.5133 C   0  0  0  0  0  0  0  0  0  0  0  0
  -26.8894  -14.7433   -1.0102 N   0  0  0  0  0  0  0  0  0  0  0  0
  -26.9019  -14.4875   -2.3955 C   0  0  0  0  0  0  0  0  0  0  0  0
  -29.4483  -16.7428   -0.8812 H   0  0  0  0  0  0  0  0  0  0  0  0
  -27.7863  -15.8527    0.9434 C   0  0  0  0  0  0  0  0  0  0  0  0
  -28.7405  -15.2263    1.7488 C   0  0  0  0  0  0  0  0  0  0  0  0
  -28.7821  -15.4857    3.1214 C   0  0  0  0  0  0  0  0  0  0  0  0
  -27.8717  -16.3728    3.7271 C   0  0  0  0  0  0  0  0  0  0  0  0
  -26.9037  -16.9748    2.9077 C   0  0  0  0  0  0  0  0  0  0  0  0
  -26.8589  -16.7190    1.5305 C   0  0  0  0  0  0  0  0  0  0  0  0
  -27.9483  -16.6140    5.2348 C   0  0  0  0  0  0  0  0  0  0  0  0
  -29.2789  -16.2112    5.8846 C   0  0  0  0  0  0  0  0  0  0  0  0
  -27.6487  -18.0823    5.5555 C   0  0  0  0  0  0  0  0  0  0  0  0
  -26.9428  -15.8191    5.8785 O   0  0  0  0  0  0  0  0  0  0  0  0
  -26.9590  -14.9420    5.4576 H   0  0  0  0  0  0  0  0  0  0  0  0
  -24.8793  -12.9807   -2.0985 C   0  0  0  0  0  0  0  0  0  0  0  0
  -22.7072  -12.2083   -3.0194 C   0  0  0  0  0  0  0  0  0  0  0  0
  -22.9403  -11.0175   -2.8293 O   0  0  0  0  0  0  0  0  0  0  0  0
  -23.5690  -13.2152   -2.6479 N   0  0  0  0  0  0  0  0  0  0  0  0
  -23.3291  -14.1517   -2.9614 H   0  0  0  0  0  0  0  0  0  0  0  0
  -21.4161  -12.6052   -5.1646 C   0  0  0  0  0  0  0  0  0  0  0  0
  -21.3874  -12.7377   -3.6400 C   0  0  2  0  0  0  0  0  0  0  0  0
  -21.0910  -14.1020   -3.1094 N   0  0  0  0  0  0  0  0  0  0  0  0
  -20.7607  -15.0684   -4.1598 C   0  0  0  0  0  0  0  0  0  0  0  0
  -20.0364  -14.0720   -2.0969 C   0  0  0  0  0  0  0  0  0  0  0  0
  -25.2152  -12.7861   -4.7557 H   0  0  0  0  0  0  0  0  0  0  0  0
  -26.8682  -13.8236   -6.1892 H   0  0  0  0  0  0  0  0  0  0  0  0
  -28.5536  -15.2871   -5.2285 H   0  0  0  0  0  0  0  0  0  0  0  0
  -29.4170  -14.5698    1.3288 H   0  0  0  0  0  0  0  0  0  0  0  0
  -29.4946  -15.0175    3.7029 H   0  0  0  0  0  0  0  0  0  0  0  0
  -26.2130  -17.6169    3.3268 H   0  0  0  0  0  0  0  0  0  0  0  0
  -26.1382  -17.1720    0.9471 H   0  0  0  0  0  0  0  0  0  0  0  0
  -30.0756  -16.7736    5.4442 H   0  0  0  0  0  0  0  0  0  0  0  0
  -29.4506  -15.1667    5.7280 H   0  0  0  0  0  0  0  0  0  0  0  0
  -29.2383  -16.4124    6.9347 H   0  0  0  0  0  0  0  0  0  0  0  0
  -28.3824  -18.7061    5.0891 H   0  0  0  0  0  0  0  0  0  0  0  0
  -27.6773  -18.2290    6.6150 H   0  0  0  0  0  0  0  0  0  0  0  0
  -26.6773  -18.3370    5.1863 H   0  0  0  0  0  0  0  0  0  0  0  0
  -25.0576  -11.9266   -2.0539 H   0  0  0  0  0  0  0  0  0  0  0  0
  -24.9218  -13.4070   -1.1180 H   0  0  0  0  0  0  0  0  0  0  0  0
  -21.6361  -11.5924   -5.4305 H   0  0  0  0  0  0  0  0  0  0  0  0
  -22.1698  -13.2508   -5.5646 H   0  0  0  0  0  0  0  0  0  0  0  0
  -20.4624  -12.8798   -5.5645 H   0  0  0  0  0  0  0  0  0  0  0  0
  -20.5551  -12.1352   -3.3413 H   0  0  0  0  0  0  0  0  0  0  0  0
  -21.5404  -15.0792   -4.8925 H   0  0  0  0  0  0  0  0  0  0  0  0
  -20.6621  -16.0431   -3.7295 H   0  0  0  0  0  0  0  0  0  0  0  0
  -19.8384  -14.7887   -4.6246 H   0  0  0  0  0  0  0  0  0  0  0  0
  -20.2912  -13.3627   -1.3374 H   0  0  0  0  0  0  0  0  0  0  0  0
  -19.1113  -13.7885   -2.5538 H   0  0  0  0  0  0  0  0  0  0  0  0
  -19.9350  -15.0429   -1.6587 H   0  0  0  0  0  0  0  0  0  0  0  0
  1  2  2  0
  2  3  1  0
  2 34  1  0
  3  4  2  0
  3 35  1  0
  4  5  1  0
  4 36  1  0
  5  6  1  0
  6  7  2  0
  6  8  1  0
  8  9  1  0
  8 12  1  0
  9 13  1  0
  9 10  2  0
 10 11  1  0
 11  1  1  0
 11  5  2  0
 13 14  2  0
 14 15  1  0
 14 37  1  0
 15 16  2  0
 15 38  1  0
 16 19  1  0
 16 17  1  0
 17 18  2  0
 17 39  1  0
 18 13  1  0
 18 40  1  0
 19 20  1  0
 19 21  1  0
 19 22  1  0
 20 41  1  0
 20 42  1  0
 20 43  1  0
 21 44  1  0
 21 45  1  0
 21 46  1  0
 22 23  1  0
 24  1  1  0
 24 47  1  0
 24 48  1  0
 25 26  2  0
 25 27  1  0
 27 24  1  0
 27 28  1  0
 29 30  1  0
 29 49  1  0
 29 50  1  0
 29 51  1  0
 30 25  1  0
 30 31  1  0
 30 52  1  1
 31 32  1  0
 31 33  1  0
 32 53  1  0
 32 54  1  0
 32 55  1  0
 33 56  1  0
 33 57  1  0
 33 58  1  0
M  END
>  <minimizedAffinity>  (7) 
-10.85926

>  <mol_id>  (7) 
67393

>  <source_index>  (7) 
6

>  <layer>  (7) 
L1

>  <uniprot>  (7) 
O95271

>  <paff>  (7) 
6.5199999999999996

>  <smiles>  (7) 
CC(C(=O)NCc1cccc2c(=O)[nH]c(-c3ccc(C(C)(C)O)cc3)nc12)N(C)C

$$$$
L1:O95271:67395
     RDKit          3D

 48 50  0  0  0  0  0  0  0  0999 V2000
  -29.7360  -15.5523   -4.6036 C   0  0  0  0  0  0  0  0  0  0  0  0
  -28.6506  -14.8374   -5.1173 C   0  0  0  0  0  0  0  0  0  0  0  0
  -27.6128  -14.4240   -4.2764 C   0  0  0  0  0  0  0  0  0  0  0  0
  -27.6656  -14.7301   -2.9162 C   0  0  0  0  0  0  0  0  0  0  0  0
  -26.5984  -14.3131   -1.9943 C   0  0  0  0  0  0  0  0  0  0  0  0
  -25.6237  -13.6707   -2.3650 O   0  0  0  0  0  0  0  0  0  0  0  0
  -26.7686  -14.6864   -0.6853 N   0  0  0  0  0  0  0  0  0  0  0  0
  -27.8552  -15.4006   -0.2315 C   0  0  0  0  0  0  0  0  0  0  0  0
  -28.8218  -15.7672   -1.0137 N   0  0  0  0  0  0  0  0  0  0  0  0
  -28.7371  -15.4409   -2.3782 C   0  0  0  0  0  0  0  0  0  0  0  0
  -29.7674  -15.8479   -3.2317 C   0  0  0  0  0  0  0  0  0  0  0  0
  -26.0465  -14.3650   -0.0584 H   0  0  0  0  0  0  0  0  0  0  0  0
  -27.8887  -15.7235    1.2199 C   0  0  0  0  0  0  0  0  0  0  0  0
  -28.8212  -15.1450    2.0844 C   0  0  0  0  0  0  0  0  0  0  0  0
  -28.8151  -15.4798    3.4427 C   0  0  0  0  0  0  0  0  0  0  0  0
  -27.8764  -16.3864    3.9739 C   0  0  0  0  0  0  0  0  0  0  0  0
  -26.9439  -16.9522    3.0915 C   0  0  0  0  0  0  0  0  0  0  0  0
  -26.9450  -16.6192    1.7319 C   0  0  0  0  0  0  0  0  0  0  0  0
  -27.9193  -16.7253    5.4636 C   0  0  0  0  0  0  0  0  0  0  0  0
  -29.3170  -16.4542    6.0310 C   0  0  0  0  0  0  0  0  0  0  0  0
  -27.4966  -18.1582    5.8137 C   0  0  0  0  0  0  0  0  0  0  0  0
  -27.0014  -15.8645    6.1519 O   0  0  0  0  0  0  0  0  0  0  0  0
  -26.1730  -15.8679    5.6410 H   0  0  0  0  0  0  0  0  0  0  0  0
  -31.7102  -15.2395   -6.1279 C   0  0  0  0  0  0  0  0  0  0  0  0
  -31.6924  -14.0183   -6.2362 O   0  0  0  0  0  0  0  0  0  0  0  0
  -30.8228  -16.0063   -5.3807 N   0  0  0  0  0  0  0  0  0  0  0  0
  -30.9618  -17.0096   -5.3981 H   0  0  0  0  0  0  0  0  0  0  0  0
  -32.7721  -16.1183   -6.8255 C   0  0  0  0  0  0  0  0  0  0  0  0
  -34.8189  -17.2697   -6.5518 C   0  0  0  0  0  0  0  0  0  0  0  0
  -33.5163  -17.0287   -6.0368 O   0  0  0  0  0  0  0  0  0  0  0  0
  -28.6148  -14.6131   -6.1240 H   0  0  0  0  0  0  0  0  0  0  0  0
  -26.8131  -13.8960   -4.6593 H   0  0  0  0  0  0  0  0  0  0  0  0
  -30.5659  -16.3755   -2.8457 H   0  0  0  0  0  0  0  0  0  0  0  0
  -29.5138  -14.4715    1.7215 H   0  0  0  0  0  0  0  0  0  0  0  0
  -29.5144  -15.0528    4.0702 H   0  0  0  0  0  0  0  0  0  0  0  0
  -26.2470  -17.6237    3.4500 H   0  0  0  0  0  0  0  0  0  0  0  0
  -26.2432  -17.0384    1.1020 H   0  0  0  0  0  0  0  0  0  0  0  0
  -30.0299  -17.0818    5.5382 H   0  0  0  0  0  0  0  0  0  0  0  0
  -29.5742  -15.4280    5.8706 H   0  0  0  0  0  0  0  0  0  0  0  0
  -29.3227  -16.6635    7.0803 H   0  0  0  0  0  0  0  0  0  0  0  0
  -28.1491  -18.8518    5.3259 H   0  0  0  0  0  0  0  0  0  0  0  0
  -27.5545  -18.2984    6.8729 H   0  0  0  0  0  0  0  0  0  0  0  0
  -26.4914  -18.3235    5.4865 H   0  0  0  0  0  0  0  0  0  0  0  0
  -33.4727  -15.4576   -7.2919 H   0  0  0  0  0  0  0  0  0  0  0  0
  -32.2053  -16.7429   -7.4839 H   0  0  0  0  0  0  0  0  0  0  0  0
  -35.3310  -17.9621   -5.9168 H   0  0  0  0  0  0  0  0  0  0  0  0
  -34.7426  -17.6790   -7.5375 H   0  0  0  0  0  0  0  0  0  0  0  0
  -35.3637  -16.3495   -6.5889 H   0  0  0  0  0  0  0  0  0  0  0  0
  1  2  2  0
  2  3  1  0
  2 31  1  0
  3  4  2  0
  3 32  1  0
  4  5  1  0
  5  6  2  0
  5  7  1  0
  7  8  1  0
  7 12  1  0
  8 13  1  0
  8  9  2  0
  9 10  1  0
 10 11  2  0
 10  4  1  0
 11  1  1  0
 11 33  1  0
 13 14  2  0
 14 15  1  0
 14 34  1  0
 15 16  2  0
 15 35  1  0
 16 19  1  0
 16 17  1  0
 17 18  2  0
 17 36  1  0
 18 13  1  0
 18 37  1  0
 19 20  1  0
 19 21  1  0
 19 22  1  0
 20 38  1  0
 20 39  1  0
 20 40  1  0
 21 41  1  0
 21 42  1  0
 21 43  1  0
 22 23  1  0
 24 25  2  0
 24 26  1  0
 26  1  1  0
 26 27  1  0
 28 24  1  0
 28 44  1  0
 28 45  1  0
 29 30  1  0
 29 46  1  0
 29 47  1  0
 29 48  1  0
 30 28  1  0
M  END
>  <minimizedAffinity>  (8) 
-10.33419

>  <mol_id>  (8) 
67395

>  <source_index>  (8) 
7

>  <layer>  (8) 
L1

>  <uniprot>  (8) 
O95271

>  <paff>  (8) 
6.1700999999999997

>  <smiles>  (8) 
COCC(=O)Nc1ccc2c(=O)[nH]c(-c3ccc(C(C)(C)O)cc3)nc2c1

$$$$
L1:O95271:67397
     RDKit          3D

 44 46  0  0  0  0  0  0  0  0999 V2000
  -29.0364  -15.7544    4.8750 C   0  0  0  0  0  0  0  0  0  0  0  0
  -28.7636  -16.3734    6.0987 C   0  0  0  0  0  0  0  0  0  0  0  0
  -27.7474  -17.3294    6.1966 C   0  0  0  0  0  0  0  0  0  0  0  0
  -26.9976  -17.6716    5.0741 C   0  0  0  0  0  0  0  0  0  0  0  0
  -27.2736  -17.0514    3.8532 C   0  0  0  0  0  0  0  0  0  0  0  0
  -26.5058  -17.3842    2.6447 C   0  0  0  0  0  0  0  0  0  0  0  0
  -25.6079  -18.2175    2.6460 O   0  0  0  0  0  0  0  0  0  0  0  0
  -26.8621  -16.7044    1.5084 N   0  0  0  0  0  0  0  0  0  0  0  0
  -27.8718  -15.7710    1.4629 C   0  0  0  0  0  0  0  0  0  0  0  0
  -28.5834  -15.4607    2.5005 N   0  0  0  0  0  0  0  0  0  0  0  0
  -28.2861  -16.0966    3.7313 C   0  0  0  0  0  0  0  0  0  0  0  0
  -26.3467  -16.9669    0.6811 H   0  0  0  0  0  0  0  0  0  0  0  0
  -28.1340  -15.1359    0.1453 C   0  0  0  0  0  0  0  0  0  0  0  0
  -29.3320  -15.3410   -0.5429 C   0  0  0  0  0  0  0  0  0  0  0  0
  -29.5374  -14.7257   -1.7820 C   0  0  0  0  0  0  0  0  0  0  0  0
  -28.5587  -13.8952   -2.3633 C   0  0  0  0  0  0  0  0  0  0  0  0
  -27.3537  -13.7187   -1.6660 C   0  0  0  0  0  0  0  0  0  0  0  0
  -27.1425  -14.3329   -0.4261 C   0  0  0  0  0  0  0  0  0  0  0  0
  -28.8274  -13.2572   -3.7260 C   0  0  0  0  0  0  0  0  0  0  0  0
  -30.2996  -12.8473   -3.8404 C   0  0  0  0  0  0  0  0  0  0  0  0
  -28.4432  -14.1245   -4.9320 C   0  0  0  0  0  0  0  0  0  0  0  0
  -28.0393  -12.0634   -3.8313 O   0  0  0  0  0  0  0  0  0  0  0  0
  -27.1351  -12.2958   -3.5572 H   0  0  0  0  0  0  0  0  0  0  0  0
  -32.0541  -13.4960    4.8089 C   0  0  0  0  0  0  0  0  0  0  0  0
  -31.2883  -14.7124    5.2628 C   0  0  0  0  0  0  0  0  0  0  0  0
  -31.7824  -15.5179    6.0434 O   0  0  0  0  0  0  0  0  0  0  0  0
  -30.0368  -14.7751    4.6914 N   0  0  0  0  0  0  0  0  0  0  0  0
  -29.7554  -14.0373    4.0494 H   0  0  0  0  0  0  0  0  0  0  0  0
  -29.3152  -16.1235    6.9344 H   0  0  0  0  0  0  0  0  0  0  0  0
  -27.5527  -17.7824    7.1032 H   0  0  0  0  0  0  0  0  0  0  0  0
  -26.2463  -18.3757    5.1434 H   0  0  0  0  0  0  0  0  0  0  0  0
  -30.0640  -15.9453   -0.1380 H   0  0  0  0  0  0  0  0  0  0  0  0
  -30.4262  -14.8836   -2.2821 H   0  0  0  0  0  0  0  0  0  0  0  0
  -26.6124  -13.1274   -2.0733 H   0  0  0  0  0  0  0  0  0  0  0  0
  -26.2485  -14.1920    0.0698 H   0  0  0  0  0  0  0  0  0  0  0  0
  -30.9188  -13.7168   -3.7657 H   0  0  0  0  0  0  0  0  0  0  0  0
  -30.4651  -12.3716   -4.7845 H   0  0  0  0  0  0  0  0  0  0  0  0
  -30.5429  -12.1673   -3.0509 H   0  0  0  0  0  0  0  0  0  0  0  0
  -29.0027  -15.0362   -4.9083 H   0  0  0  0  0  0  0  0  0  0  0  0
  -27.3973  -14.3468   -4.8927 H   0  0  0  0  0  0  0  0  0  0  0  0
  -28.6617  -13.5953   -5.8359 H   0  0  0  0  0  0  0  0  0  0  0  0
  -33.0172  -13.4864    5.2750 H   0  0  0  0  0  0  0  0  0  0  0  0
  -32.1726  -13.5253    3.7459 H   0  0  0  0  0  0  0  0  0  0  0  0
  -31.5161  -12.6128    5.0836 H   0  0  0  0  0  0  0  0  0  0  0  0
  1  2  2  0
  2  3  1  0
  2 29  1  0
  3  4  2  0
  3 30  1  0
  4  5  1  0
  4 31  1  0
  5  6  1  0
  6  7  2  0
  6  8  1  0
  8  9  1  0
  8 12  1  0
  9 13  1  0
  9 10  2  0
 10 11  1  0
 11  1  1  0
 11  5  2  0
 13 14  2  0
 14 15  1  0
 14 32  1  0
 15 16  2  0
 15 33  1  0
 16 19  1  0
 16 17  1  0
 17 18  2  0
 17 34  1  0
 18 13  1  0
 18 35  1  0
 19 20  1  0
 19 21  1  0
 19 22  1  0
 20 36  1  0
 20 37  1  0
 20 38  1  0
 21 39  1  0
 21 40  1  0
 21 41  1  0
 22 23  1  0
 24 25  1  0
 24 42  1  0
 24 43  1  0
 24 44  1  0
 25 26  2  0
 25 27  1  0
 27  1  1  0
 27 28  1  0
M  END
>  <minimizedAffinity>  (9) 
-12.61033

>  <mol_id>  (9) 
67397

>  <source_index>  (9) 
8

>  <layer>  (9) 
L1

>  <uniprot>  (9) 
O95271

>  <paff>  (9) 
7.2441000000000004

>  <smiles>  (9) 
CC(=O)Nc1cccc2c(=O)[nH]c(-c3ccc(C(C)(C)O)cc3)nc12

$$$$
L1:O95271:67399
     RDKit          3D

 51 53  0  0  0  0  0  0  0  0999 V2000
  -25.1854  -13.3487   -4.0041 C   0  0  0  0  0  0  0  0  0  0  0  0
  -26.0834  -13.6640   -3.1247 N   0  0  0  0  0  0  0  0  0  0  0  0
  -27.4453  -13.6176   -3.5055 C   0  0  0  0  0  0  0  0  0  0  0  0
  -28.4298  -13.9706   -2.5605 C   0  0  0  0  0  0  0  0  0  0  0  0
  -29.7816  -13.9374   -2.9158 C   0  0  0  0  0  0  0  0  0  0  0  0
  -30.1633  -13.5554   -4.2062 C   0  0  0  0  0  0  0  0  0  0  0  0
  -29.1982  -13.2042   -5.1471 C   0  0  0  0  0  0  0  0  0  0  0  0
  -27.8488  -13.2392   -4.7877 C   0  0  0  0  0  0  0  0  0  0  0  0
  -26.7981  -12.8718   -5.7481 C   0  0  0  0  0  0  0  0  0  0  0  0
  -27.0520  -12.5138   -6.8918 O   0  0  0  0  0  0  0  0  0  0  0  0
  -25.5111  -12.9518   -5.2811 N   0  0  0  0  0  0  0  0  0  0  0  0
  -24.8049  -12.6618   -5.9408 H   0  0  0  0  0  0  0  0  0  0  0  0
  -20.9897  -13.3976   -2.9491 C   0  0  0  0  0  0  0  0  0  0  0  0
  -21.8667  -12.4033   -2.4740 C   0  0  0  0  0  0  0  0  0  0  0  0
  -23.2224  -12.3976   -2.8186 C   0  0  0  0  0  0  0  0  0  0  0  0
  -23.7394  -13.3854   -3.6585 C   0  0  0  0  0  0  0  0  0  0  0  0
  -22.8915  -14.3908   -4.1289 C   0  0  0  0  0  0  0  0  0  0  0  0
  -21.5340  -14.3919   -3.7791 C   0  0  0  0  0  0  0  0  0  0  0  0
  -18.5362  -13.6964   -3.7070 C   0  0  0  0  0  0  0  0  0  0  0  0
  -19.5038  -13.3708   -2.5467 C   0  0  0  0  0  0  0  0  0  0  0  0
  -19.1321  -11.9660   -2.0245 C   0  0  0  0  0  0  0  0  0  0  0  0
  -19.2490  -14.4103   -1.4341 C   0  0  0  0  0  0  0  0  0  0  0  0
  -27.9613  -14.3400   -1.2836 N   0  0  0  0  0  0  0  0  0  0  0  0
  -27.8758  -15.5951   -0.7192 C   0  0  0  0  0  0  0  0  0  0  0  0
  -28.1947  -16.6576   -1.2464 O   0  0  0  0  0  0  0  0  0  0  0  0
  -27.6238  -13.5559   -0.7216 H   0  0  0  0  0  0  0  0  0  0  0  0
  -27.3501  -15.5305    0.7280 C   0  0  2  0  0  0  0  0  0  0  0  0
  -26.6684  -16.7379    1.0789 O   0  0  0  0  0  0  0  0  0  0  0  0
  -27.3293  -17.4541    1.0906 H   0  0  0  0  0  0  0  0  0  0  0  0
  -28.4935  -15.2529    1.7089 C   0  0  0  0  0  0  0  0  0  0  0  0
  -28.3913  -16.0381    2.8920 O   0  0  0  0  0  0  0  0  0  0  0  0
  -27.5570  -15.7709    3.3320 H   0  0  0  0  0  0  0  0  0  0  0  0
  -30.5012  -14.1959   -2.2228 H   0  0  0  0  0  0  0  0  0  0  0  0
  -31.1629  -13.5337   -4.4618 H   0  0  0  0  0  0  0  0  0  0  0  0
  -29.4771  -12.9212   -6.0995 H   0  0  0  0  0  0  0  0  0  0  0  0
  -21.5005  -11.6614   -1.8571 H   0  0  0  0  0  0  0  0  0  0  0  0
  -23.8430  -11.6599   -2.4503 H   0  0  0  0  0  0  0  0  0  0  0  0
  -23.2660  -15.1361   -4.7366 H   0  0  0  0  0  0  0  0  0  0  0  0
  -20.9208  -15.1397   -4.1393 H   0  0  0  0  0  0  0  0  0  0  0  0
  -17.5276  -13.6584   -3.3517 H   0  0  0  0  0  0  0  0  0  0  0  0
  -18.6654  -12.9797   -4.4909 H   0  0  0  0  0  0  0  0  0  0  0  0
  -18.7456  -14.6765   -4.0817 H   0  0  0  0  0  0  0  0  0  0  0  0
  -18.0991  -11.9509   -1.7458 H   0  0  0  0  0  0  0  0  0  0  0  0
  -19.7349  -11.7313   -1.1722 H   0  0  0  0  0  0  0  0  0  0  0  0
  -19.3047  -11.2424   -2.7936 H   0  0  0  0  0  0  0  0  0  0  0  0
  -18.2159  -14.3896   -1.1564 H   0  0  0  0  0  0  0  0  0  0  0  0
  -19.5024  -15.3860   -1.7928 H   0  0  0  0  0  0  0  0  0  0  0  0
  -19.8521  -14.1758   -0.5820 H   0  0  0  0  0  0  0  0  0  0  0  0
  -26.6505  -14.7232    0.7892 H   0  0  0  0  0  0  0  0  0  0  0  0
  -29.4224  -15.4757    1.2269 H   0  0  0  0  0  0  0  0  0  0  0  0
  -28.4388  -14.2228    1.9932 H   0  0  0  0  0  0  0  0  0  0  0  0
  1  2  2  0
  2  3  1  0
  3  4  2  0
  4 23  1  0
  4  5  1  0
  5  6  2  0
  5 33  1  0
  6  7  1  0
  6 34  1  0
  7  8  2  0
  7 35  1  0
  8  9  1  0
  8  3  1  0
  9 10  2  0
  9 11  1  0
 11  1  1  0
 11 12  1  0
 13 14  2  0
 14 15  1  0
 14 36  1  0
 15 16  2  0
 15 37  1  0
 16  1  1  0
 16 17  1  0
 17 18  2  0
 17 38  1  0
 18 13  1  0
 18 39  1  0
 19 20  1  0
 19 40  1  0
 19 41  1  0
 19 42  1  0
 20 21  1  0
 20 22  1  0
 20 13  1  0
 21 43  1  0
 21 44  1  0
 21 45  1  0
 22 46  1  0
 22 47  1  0
 22 48  1  0
 23 24  1  0
 23 26  1  0
 24 25  2  0
 24 27  1  0
 27 28  1  0
 27 30  1  0
 27 49  1  6
 28 29  1  0
 30 31  1  0
 30 50  1  0
 30 51  1  0
 31 32  1  0
M  END
>  <minimizedAffinity>  (10) 
-8.63244

>  <mol_id>  (10) 
67399

>  <source_index>  (10) 
9

>  <layer>  (10) 
L1

>  <uniprot>  (10) 
O95271

>  <paff>  (10) 
7.2999999999999998

>  <smiles>  (10) 
CC(C)(C)c1ccc(-c2nc3c(NC(=O)C(O)CO)cccc3c(=O)[nH]2)cc1

$$$$
