L2:P56817:9611
     RDKit          3D

 53 56  0  0  0  0  0  0  0  0999 V2000
   70.3226   48.4133    8.2501 C   0  0  0  0  0  0  0  0  0  0  0  0
   70.4114   47.8196    6.9763 C   0  0  0  0  0  0  0  0  0  0  0  0
   71.6312   47.7430    6.2960 C   0  0  0  0  0  0  0  0  0  0  0  0
   72.7458   48.2785    6.9269 C   0  0  0  0  0  0  0  0  0  0  0  0
   72.7130   48.8712    8.1424 N   0  0  0  0  0  0  0  0  0  0  0  0
   71.5142   48.9276    8.7671 C   0  0  0  0  0  0  0  0  0  0  0  0
   71.5159   49.5578    9.9526 F   0  0  0  0  0  0  0  0  0  0  0  0
   66.5051   48.0433    8.3917 C   0  0  1  0  0  0  0  0  0  0  0  0
   67.2223   48.2110    7.0639 C   0  0  0  0  0  0  0  0  0  0  0  0
   67.9784   47.7302    8.2849 C   0  0  1  0  0  0  0  0  0  0  0  0
   69.0007   48.5615    9.0162 C   0  0  1  0  0  0  0  0  0  0  0  0
   69.1150   48.0412   10.4726 C   0  0  0  0  0  0  0  0  0  0  0  0
   68.6659   49.9777    9.1411 N   0  0  0  0  0  0  0  0  0  0  0  0
   67.4697   50.4174    9.2497 C   0  0  0  0  0  0  0  0  0  0  0  0
   67.2564   51.7535    9.3655 N   0  0  0  0  0  0  0  0  0  0  0  0
   65.9964   49.4886    9.2483 S   0  0  0  0  0  0  0  0  0  0  0  0
   68.0424   52.2882    9.0125 H   0  0  0  0  0  0  0  0  0  0  0  0
   66.3614   52.0588    9.0053 H   0  0  0  0  0  0  0  0  0  0  0  0
   65.5159   46.8956    8.5475 C   0  0  0  0  0  0  0  0  0  0  0  0
   62.3162   47.2556    9.2573 H   0  0  0  0  0  0  0  0  0  0  0  0
   63.1583   46.9163    8.6480 C   0  0  0  0  0  0  0  0  0  0  0  0
   63.1038   45.8267    8.5535 H   0  0  0  0  0  0  0  0  0  0  0  0
   63.0874   47.3861    7.6619 H   0  0  0  0  0  0  0  0  0  0  0  0
   64.3625   47.2997    9.2973 O   0  0  0  0  0  0  0  0  0  0  0  0
   71.6357   47.1410    5.0250 N   0  0  0  0  0  0  0  0  0  0  0  0
   72.1214   45.8915    4.6901 C   0  0  0  0  0  0  0  0  0  0  0  0
   72.6258   45.0728    5.4474 O   0  0  0  0  0  0  0  0  0  0  0  0
   71.2566   47.6705    4.2423 H   0  0  0  0  0  0  0  0  0  0  0  0
   71.9913   45.5816    3.2378 C   0  0  0  0  0  0  0  0  0  0  0  0
   70.8555   45.9655    2.5380 C   0  0  0  0  0  0  0  0  0  0  0  0
   70.6899   45.6955    1.2167 N   0  0  0  0  0  0  0  0  0  0  0  0
   71.7034   45.0198    0.6300 C   0  0  0  0  0  0  0  0  0  0  0  0
   72.8445   44.6442    1.3322 C   0  0  0  0  0  0  0  0  0  0  0  0
   73.0247   44.9075    2.6526 N   0  0  0  0  0  0  0  0  0  0  0  0
   71.6519   44.6993   -0.7076 O   0  0  0  0  0  0  0  0  0  0  0  0
   72.3644   43.5088   -1.0593 C   0  0  0  0  0  0  0  0  0  0  0  0
   73.3544   43.7798   -2.1135 C   0  0  0  0  0  0  0  0  0  0  0  0
   74.1593   44.0000   -2.9778 C   0  0  0  0  0  0  0  0  0  0  0  0
   69.5611   47.4340    6.5367 H   0  0  0  0  0  0  0  0  0  0  0  0
   73.6536   48.2210    6.4395 H   0  0  0  0  0  0  0  0  0  0  0  0
   67.4035   49.1903    6.6728 H   0  0  0  0  0  0  0  0  0  0  0  0
   67.0740   47.8428    6.0703 H   0  0  0  0  0  0  0  0  0  0  0  0
   68.6040   46.8847    8.4814 H   0  0  0  0  0  0  0  0  0  0  0  0
   69.3607   46.9999   10.4611 H   0  0  0  0  0  0  0  0  0  0  0  0
   68.1813   48.1818   10.9759 H   0  0  0  0  0  0  0  0  0  0  0  0
   69.8819   48.5830   10.9857 H   0  0  0  0  0  0  0  0  0  0  0  0
   65.2042   46.5700    7.5771 H   0  0  0  0  0  0  0  0  0  0  0  0
   66.0007   46.1014    9.0758 H   0  0  0  0  0  0  0  0  0  0  0  0
   70.1104   46.4741    3.0392 H   0  0  0  0  0  0  0  0  0  0  0  0
   73.5898   44.1414    0.8255 H   0  0  0  0  0  0  0  0  0  0  0  0
   71.6691   42.7760   -1.4121 H   0  0  0  0  0  0  0  0  0  0  0  0
   72.8787   43.1502   -0.1922 H   0  0  0  0  0  0  0  0  0  0  0  0
   74.8252   44.1822   -3.6929 H   0  0  0  0  0  0  0  0  0  0  0  0
  1  2  2  0
  2  3  1  0
  2 39  1  0
  3 25  1  0
  3  4  2  0
  4  5  1  0
  4 40  1  0
  5  6  2  0
  6  7  1  0
  6  1  1  0
  8 19  1  6
  8  9  1  0
  9 10  1  0
  9 41  1  0
  9 42  1  0
 10 11  1  0
 10  8  1  0
 10 43  1  6
 11 12  1  1
 11  1  1  0
 11 13  1  0
 12 44  1  0
 12 45  1  0
 12 46  1  0
 13 14  2  0
 14 15  1  0
 14 16  1  0
 15 17  1  0
 15 18  1  0
 16  8  1  0
 19 47  1  0
 19 48  1  0
 20 21  1  0
 21 22  1  0
 21 23  1  0
 21 24  1  0
 24 19  1  0
 25 26  1  0
 25 28  1  0
 26 27  2  0
 26 29  1  0
 29 30  2  0
 30 31  1  0
 30 49  1  0
 31 32  2  0
 32 35  1  0
 32 33  1  0
 33 34  2  0
 33 50  1  0
 34 29  1  0
 35 36  1  0
 36 37  1  0
 36 51  1  0
 36 52  1  0
 37 38  3  0
 38 53  1  0
M  ISO  3  20   2  22   2  23   2
M  END
>  <minimizedAffinity>  (1) 
-7.19692

>  <mol_id>  (1) 
9611

>  <source_index>  (1) 
0

>  <layer>  (1) 
L2

>  <uniprot>  (1) 
P56817

>  <paff>  (1) 
9.2410999999999994

>  <smiles>  (1) 
[2H]C([2H])([2H])OC[C@]12C[C@H]1[C@@](C)(c1cc(NC(=O)c3cnc(OCC#C)cn3)cnc1F)N=C(N)S2

$$$$
L2:P56817:13349
     RDKit          3D

 59 63  0  0  0  0  0  0  0  0999 V2000
   71.1820   48.1988    8.4737 C   0  0  0  0  0  0  0  0  0  0  0  0
   69.8889   47.6605    8.6376 C   0  0  0  0  0  0  0  0  0  0  0  0
   68.7444   48.4751    8.6948 C   0  0  0  0  0  0  0  0  0  0  0  0
   68.8873   49.8567    8.5984 C   0  0  0  0  0  0  0  0  0  0  0  0
   70.1563   50.4050    8.4522 C   0  0  0  0  0  0  0  0  0  0  0  0
   70.2880   51.7365    8.3642 F   0  0  0  0  0  0  0  0  0  0  0  0
   71.2857   49.5946    8.3949 C   0  0  0  0  0  0  0  0  0  0  0  0
   72.4873   50.1747    8.2513 F   0  0  0  0  0  0  0  0  0  0  0  0
   72.7986   46.2821    6.0200 C   0  0  1  0  0  0  0  0  0  0  0  0
   72.4812   47.7321    5.7517 C   0  0  0  0  0  0  0  0  0  0  0  0
   73.1270   47.3377    7.0671 C   0  0  1  0  0  0  0  0  0  0  0  0
   72.4295   47.3098    8.4223 C   0  0  1  0  0  0  0  0  0  0  0  0
   73.4159   47.8433    9.4990 C   0  0  0  0  0  0  0  0  0  0  0  0
   72.1923   45.9200    8.8551 N   0  0  0  0  0  0  0  0  0  0  0  0
   71.7687   45.0082    8.0618 C   0  0  0  0  0  0  0  0  0  0  0  0
   71.5382   43.7501    8.5134 N   0  0  0  0  0  0  0  0  0  0  0  0
   71.4506   45.2135    6.3672 S   0  0  0  0  0  0  0  0  0  0  0  0
   71.6187   43.0336    7.8022 H   0  0  0  0  0  0  0  0  0  0  0  0
   72.0321   43.5450    9.3731 H   0  0  0  0  0  0  0  0  0  0  0  0
   73.9811   45.6304    5.3263 C   0  0  0  0  0  0  0  0  0  0  0  0
   75.1933   44.1635    6.7553 C   0  0  0  0  0  0  0  0  0  0  0  0
   74.1976   44.2798    5.7489 O   0  0  0  0  0  0  0  0  0  0  0  0
   67.5072   47.8260    8.8501 N   0  0  0  0  0  0  0  0  0  0  0  0
   66.4960   47.6782    7.9191 C   0  0  0  0  0  0  0  0  0  0  0  0
   66.4826   48.0936    6.7675 O   0  0  0  0  0  0  0  0  0  0  0  0
   67.3088   47.3988    9.7539 H   0  0  0  0  0  0  0  0  0  0  0  0
   65.3248   46.9204    8.4464 C   0  0  0  0  0  0  0  0  0  0  0  0
   64.2588   47.5894    9.0305 C   0  0  0  0  0  0  0  0  0  0  0  0
   63.1747   46.9359    9.5252 N   0  0  0  0  0  0  0  0  0  0  0  0
   63.2015   45.5912    9.4090 C   0  0  0  0  0  0  0  0  0  0  0  0
   64.2698   44.9220    8.8211 C   0  0  0  0  0  0  0  0  0  0  0  0
   65.3611   45.5599    8.3253 N   0  0  0  0  0  0  0  0  0  0  0  0
   62.1467   44.8315    9.8612 O   0  0  0  0  0  0  0  0  0  0  0  0
   60.8533   45.3198    9.4843 C   0  0  0  0  0  0  0  0  0  0  0  0
   60.4384   44.7573    8.1639 C   0  0  1  0  0  0  0  0  0  0  0  0
   59.2680   45.3617    7.4115 C   0  0  0  0  0  0  0  0  0  0  0  0
   60.6584   45.5412    6.9250 C   0  0  0  0  0  0  0  0  0  0  0  0
   61.0530   44.9248    5.7607 F   0  0  0  0  0  0  0  0  0  0  0  0
   61.2065   46.8016    6.9344 F   0  0  0  0  0  0  0  0  0  0  0  0
   69.7794   46.6375    8.7180 H   0  0  0  0  0  0  0  0  0  0  0  0
   68.0574   50.4691    8.6352 H   0  0  0  0  0  0  0  0  0  0  0  0
   71.4633   48.0614    5.7343 H   0  0  0  0  0  0  0  0  0  0  0  0
   72.7203   48.4247    4.9719 H   0  0  0  0  0  0  0  0  0  0  0  0
   73.9904   47.6926    7.5900 H   0  0  0  0  0  0  0  0  0  0  0  0
   73.6627   48.8618    9.2832 H   0  0  0  0  0  0  0  0  0  0  0  0
   74.3070   47.2510    9.4911 H   0  0  0  0  0  0  0  0  0  0  0  0
   72.9569   47.7843   10.4637 H   0  0  0  0  0  0  0  0  0  0  0  0
   73.8028   45.6340    4.2713 H   0  0  0  0  0  0  0  0  0  0  0  0
   74.8547   46.1921    5.5835 H   0  0  0  0  0  0  0  0  0  0  0  0
   75.3075   43.1349    7.0268 H   0  0  0  0  0  0  0  0  0  0  0  0
   74.8993   44.7288    7.6149 H   0  0  0  0  0  0  0  0  0  0  0  0
   76.1231   44.5393    6.3822 H   0  0  0  0  0  0  0  0  0  0  0  0
   64.2902   48.6191    9.0914 H   0  0  0  0  0  0  0  0  0  0  0  0
   64.2312   43.8926    8.7588 H   0  0  0  0  0  0  0  0  0  0  0  0
   60.8874   46.3871    9.4159 H   0  0  0  0  0  0  0  0  0  0  0  0
   60.1429   45.0168   10.2249 H   0  0  0  0  0  0  0  0  0  0  0  0
   60.6985   43.7757    8.5011 H   0  0  0  0  0  0  0  0  0  0  0  0
   58.7329   46.1902    7.8264 H   0  0  0  0  0  0  0  0  0  0  0  0
   58.3574   44.9873    6.9926 H   0  0  0  0  0  0  0  0  0  0  0  0
  1  2  2  0
  2  3  1  0
  2 40  1  0
  3 23  1  0
  3  4  2  0
  4  5  1  0
  4 41  1  0
  5  6  1  0
  5  7  2  0
  7  8  1  0
  7  1  1  0
  9 20  1  6
  9 10  1  0
 10 11  1  0
 10 42  1  0
 10 43  1  0
 11 12  1  0
 11  9  1  0
 11 44  1  1
 12 13  1  1
 12  1  1  0
 12 14  1  0
 13 45  1  0
 13 46  1  0
 13 47  1  0
 14 15  2  0
 15 16  1  0
 15 17  1  0
 16 18  1  0
 16 19  1  0
 17  9  1  0
 20 48  1  0
 20 49  1  0
 21 22  1  0
 21 50  1  0
 21 51  1  0
 21 52  1  0
 22 20  1  0
 23 24  1  0
 23 26  1  0
 24 25  2  0
 24 27  1  0
 27 28  2  0
 28 29  1  0
 28 53  1  0
 29 30  2  0
 30 33  1  0
 30 31  1  0
 31 32  2  0
 31 54  1  0
 32 27  1  0
 33 34  1  0
 34 35  1  0
 34 55  1  0
 34 56  1  0
 35 36  1  0
 35 57  1  6
 36 37  1  0
 36 58  1  0
 36 59  1  0
 37 38  1  0
 37 39  1  0
 37 35  1  0
M  END
>  <minimizedAffinity>  (2) 
-6.58714

>  <mol_id>  (2) 
13349

>  <source_index>  (2) 
1

>  <layer>  (2) 
L2

>  <uniprot>  (2) 
P56817

>  <paff>  (2) 
8.5884

>  <smiles>  (2) 
COC[C@]12C[C@H]1[C@@](C)(c1cc(NC(=O)c3cnc(OCC4CC4(F)F)cn3)cc(F)c1F)N=C(N)S2

$$$$
L2:P56817:17219
     RDKit          3D

 50 54  0  0  0  0  0  0  0  0999 V2000
   70.2600   48.7339    8.8652 C   0  0  0  0  0  0  0  0  0  0  0  0
   70.8490   48.6504    7.5848 C   0  0  0  0  0  0  0  0  0  0  0  0
   72.2408   48.5342    7.4070 C   0  0  0  0  0  0  0  0  0  0  0  0
   73.0663   48.4836    8.5336 C   0  0  0  0  0  0  0  0  0  0  0  0
   72.5026   48.5488    9.8009 C   0  0  0  0  0  0  0  0  0  0  0  0
   73.3021   48.4813   10.8755 F   0  0  0  0  0  0  0  0  0  0  0  0
   71.1246   48.6678    9.9675 C   0  0  0  0  0  0  0  0  0  0  0  0
   70.6363   48.6850   11.2171 F   0  0  0  0  0  0  0  0  0  0  0  0
   68.3253   50.2610    9.4703 C   0  0  0  0  0  0  0  0  0  0  0  0
   68.7303   48.8353    9.0304 C   0  0  1  0  0  0  0  0  0  0  0  0
   68.0769   48.6190    7.7329 N   0  0  0  0  0  0  0  0  0  0  0  0
   66.8830   48.1783    7.6032 C   0  0  0  0  0  0  0  0  0  0  0  0
   66.3490   48.0336    6.3631 N   0  0  0  0  0  0  0  0  0  0  0  0
   65.8035   47.6855    8.8726 S   0  0  0  0  0  0  0  0  0  0  0  0
   66.9481   47.2211   10.1129 C   0  0  1  0  0  0  0  0  0  0  0  0
   68.1457   46.3601    9.7530 C   0  0  0  0  0  0  0  0  0  0  0  0
   68.3314   47.8240   10.0800 C   0  0  1  0  0  0  0  0  0  0  0  0
   67.0567   47.9930    5.6403 H   0  0  0  0  0  0  0  0  0  0  0  0
   65.6419   47.3127    6.3000 H   0  0  0  0  0  0  0  0  0  0  0  0
   66.3128   46.9876   11.4692 C   0  0  0  0  0  0  0  0  0  0  0  0
   65.0505   47.6469   11.5306 O   0  0  0  0  0  0  0  0  0  0  0  0
   64.7395   47.5678   12.4475 H   0  0  0  0  0  0  0  0  0  0  0  0
   72.8251   48.4276    6.0147 C   0  0  0  0  0  0  0  0  0  0  0  0
   72.8935   47.0053    5.4988 C   0  0  0  0  0  0  0  0  0  0  0  0
   73.5908   46.1222    6.2783 N   0  0  0  0  0  0  0  0  0  0  0  0
   73.7017   44.8592    5.8322 C   0  0  0  0  0  0  0  0  0  0  0  0
   73.1506   44.4239    4.6436 C   0  0  0  0  0  0  0  0  0  0  0  0
   72.4367   45.3385    3.8589 C   0  0  0  0  0  0  0  0  0  0  0  0
   71.8570   44.9453    2.6424 C   0  0  0  0  0  0  0  0  0  0  0  0
   71.1549   45.8701    1.8834 C   0  0  0  0  0  0  0  0  0  0  0  0
   70.4371   45.4179    0.3929 Cl  0  0  0  0  0  0  0  0  0  0  0  0
   71.0499   47.1606    2.3632 C   0  0  0  0  0  0  0  0  0  0  0  0
   71.5937   47.5754    3.5332 N   0  0  0  0  0  0  0  0  0  0  0  0
   72.2877   46.6778    4.2786 C   0  0  0  0  0  0  0  0  0  0  0  0
   70.2396   48.6753    6.7523 H   0  0  0  0  0  0  0  0  0  0  0  0
   74.0889   48.3983    8.4242 H   0  0  0  0  0  0  0  0  0  0  0  0
   68.6150   50.9627    8.7163 H   0  0  0  0  0  0  0  0  0  0  0  0
   68.8154   50.5032   10.3901 H   0  0  0  0  0  0  0  0  0  0  0  0
   67.2652   50.3038    9.6089 H   0  0  0  0  0  0  0  0  0  0  0  0
   68.2748   46.0151    8.7484 H   0  0  0  0  0  0  0  0  0  0  0  0
   68.5577   45.4433   10.1199 H   0  0  0  0  0  0  0  0  0  0  0  0
   68.9365   48.3693   10.7738 H   0  0  0  0  0  0  0  0  0  0  0  0
   66.9537   47.3754   12.2332 H   0  0  0  0  0  0  0  0  0  0  0  0
   66.1706   45.9374   11.6168 H   0  0  0  0  0  0  0  0  0  0  0  0
   73.8162   48.8306    6.0309 H   0  0  0  0  0  0  0  0  0  0  0  0
   72.1784   48.9712    5.3581 H   0  0  0  0  0  0  0  0  0  0  0  0
   74.2252   44.1806    6.4071 H   0  0  0  0  0  0  0  0  0  0  0  0
   73.2624   43.4441    4.3393 H   0  0  0  0  0  0  0  0  0  0  0  0
   71.9528   43.9717    2.3139 H   0  0  0  0  0  0  0  0  0  0  0  0
   70.5275   47.8486    1.7986 H   0  0  0  0  0  0  0  0  0  0  0  0
  1  2  2  0
  2  3  1  0
  2 35  1  0
  3 23  1  0
  3  4  2  0
  4  5  1  0
  4 36  1  0
  5  6  1  0
  5  7  2  0
  7  8  1  0
  7  1  1  0
  9 37  1  0
  9 38  1  0
  9 39  1  0
 10  9  1  1
 10  1  1  0
 10 11  1  0
 11 12  2  0
 12 13  1  0
 12 14  1  0
 13 18  1  0
 13 19  1  0
 14 15  1  0
 15 20  1  1
 15 16  1  0
 16 17  1  0
 16 40  1  0
 16 41  1  0
 17 10  1  0
 17 15  1  0
 17 42  1  1
 20 21  1  0
 20 43  1  0
 20 44  1  0
 21 22  1  0
 23 24  1  0
 23 45  1  0
 23 46  1  0
 24 25  2  0
 25 26  1  0
 26 27  2  0
 26 47  1  0
 27 28  1  0
 27 48  1  0
 28 29  2  0
 29 30  1  0
 29 49  1  0
 30 31  1  0
 30 32  2  0
 32 33  1  0
 32 50  1  0
 33 34  2  0
 34 24  1  0
 34 28  1  0
M  END
>  <minimizedAffinity>  (3) 
-8.52076

>  <mol_id>  (3) 
17219

>  <source_index>  (3) 
2

>  <layer>  (3) 
L2

>  <uniprot>  (3) 
P56817

>  <paff>  (3) 
8.8181999999999992

>  <smiles>  (3) 
C[C@]1(c2cc(Cc3nccc4cc(Cl)cnc34)cc(F)c2F)N=C(N)S[C@@]2(CO)C[C@H]21

$$$$
L2:P56817:37944
     RDKit          3D

 59 63  0  0  0  0  0  0  0  0999 V2000
   71.4373   48.9386    7.1223 C   0  0  0  0  0  0  0  0  0  0  0  0
   71.5521   50.1958    7.6983 C   0  0  0  0  0  0  0  0  0  0  0  0
   70.5960   50.7873    8.4489 N   0  0  0  0  0  0  0  0  0  0  0  0
   69.4593   50.0815    8.6570 C   0  0  0  0  0  0  0  0  0  0  0  0
   68.5352   50.7146    9.3967 F   0  0  0  0  0  0  0  0  0  0  0  0
   69.2206   48.7980    8.1728 C   0  0  0  0  0  0  0  0  0  0  0  0
   70.2646   48.2346    7.4036 C   0  0  0  0  0  0  0  0  0  0  0  0
   67.9529   47.9667    8.4263 C   0  0  1  0  0  0  0  0  0  0  0  0
   66.8274   48.5173    7.5140 C   0  0  0  0  0  0  0  0  0  0  0  0
   68.2424   46.5911    8.0009 N   0  0  0  0  0  0  0  0  0  0  0  0
   67.5752   45.5678    8.3782 C   0  0  0  0  0  0  0  0  0  0  0  0
   67.8966   44.3380    7.9052 N   0  0  0  0  0  0  0  0  0  0  0  0
   66.2594   45.5376    9.5125 S   0  0  0  0  0  0  0  0  0  0  0  0
   66.6157   46.9656   10.4754 C   0  0  1  0  0  0  0  0  0  0  0  0
   68.0510   47.1763   10.9518 C   0  0  0  0  0  0  0  0  0  0  0  0
   67.4811   48.0482    9.8581 C   0  0  1  0  0  0  0  0  0  0  0  0
   68.8372   44.2879    7.5367 H   0  0  0  0  0  0  0  0  0  0  0  0
   67.6323   43.5690    8.5055 H   0  0  0  0  0  0  0  0  0  0  0  0
   65.4916   47.4039   11.4327 C   0  0  1  0  0  0  0  0  0  0  0  0
   64.4725   48.3468   10.7545 C   0  0  0  0  0  0  0  0  0  0  0  0
   64.2550   48.0708    9.4516 F   0  0  0  0  0  0  0  0  0  0  0  0
   63.2712   48.2866   11.3888 F   0  0  0  0  0  0  0  0  0  0  0  0
   64.8775   49.6388   10.8345 F   0  0  0  0  0  0  0  0  0  0  0  0
   64.8173   46.2596   12.0078 O   0  0  0  0  0  0  0  0  0  0  0  0
   65.3502   45.8556   13.2631 C   0  0  0  0  0  0  0  0  0  0  0  0
   72.5236   48.3721    6.4284 N   0  0  0  0  0  0  0  0  0  0  0  0
   73.4111   48.6862    6.8292 H   0  0  0  0  0  0  0  0  0  0  0  0
   71.2172   45.4360    2.6127 C   0  0  0  0  0  0  0  0  0  0  0  0
   71.1772   46.8016    2.8279 C   0  0  0  0  0  0  0  0  0  0  0  0
   71.6305   47.3729    3.9712 N   0  0  0  0  0  0  0  0  0  0  0  0
   72.1491   46.5247    4.9061 C   0  0  0  0  0  0  0  0  0  0  0  0
   72.6735   46.9831    6.1279 C   0  0  0  0  0  0  0  0  0  0  0  0
   73.2155   46.1589    7.0639 N   0  0  0  0  0  0  0  0  0  0  0  0
   73.2526   44.8428    6.7924 C   0  0  0  0  0  0  0  0  0  0  0  0
   72.7615   44.2968    5.6233 C   0  0  0  0  0  0  0  0  0  0  0  0
   72.2044   45.1324    4.6705 C   0  0  0  0  0  0  0  0  0  0  0  0
   71.7276   44.5864    3.5305 N   0  0  0  0  0  0  0  0  0  0  0  0
   70.7324   44.9685    1.4149 O   0  0  0  0  0  0  0  0  0  0  0  0
   71.3624   45.5268    0.2587 C   0  0  0  0  0  0  0  0  0  0  0  0
   72.9025   43.7300   -0.9793 C   0  0  0  0  0  0  0  0  0  0  0  0
   72.2165   44.5383   -0.4178 C   0  0  0  0  0  0  0  0  0  0  0  0
   72.4296   50.7161    7.5426 H   0  0  0  0  0  0  0  0  0  0  0  0
   70.1568   47.2750    7.0394 H   0  0  0  0  0  0  0  0  0  0  0  0
   67.1409   48.4689    6.4921 H   0  0  0  0  0  0  0  0  0  0  0  0
   66.6212   49.5340    7.7761 H   0  0  0  0  0  0  0  0  0  0  0  0
   65.9431   47.9291    7.6440 H   0  0  0  0  0  0  0  0  0  0  0  0
   68.8034   46.4514   10.7209 H   0  0  0  0  0  0  0  0  0  0  0  0
   68.5155   47.3565   11.8987 H   0  0  0  0  0  0  0  0  0  0  0  0
   67.3873   49.1044    9.7147 H   0  0  0  0  0  0  0  0  0  0  0  0
   65.9612   47.9559   12.2199 H   0  0  0  0  0  0  0  0  0  0  0  0
   64.8056   45.0091   13.6260 H   0  0  0  0  0  0  0  0  0  0  0  0
   65.2652   46.6609   13.9625 H   0  0  0  0  0  0  0  0  0  0  0  0
   66.3807   45.5929   13.1452 H   0  0  0  0  0  0  0  0  0  0  0  0
   70.7875   47.4090    2.0902 H   0  0  0  0  0  0  0  0  0  0  0  0
   73.6688   44.2092    7.4926 H   0  0  0  0  0  0  0  0  0  0  0  0
   72.8091   43.2786    5.4617 H   0  0  0  0  0  0  0  0  0  0  0  0
   70.6074   45.8588   -0.4229 H   0  0  0  0  0  0  0  0  0  0  0  0
   71.9773   46.3444    0.5723 H   0  0  0  0  0  0  0  0  0  0  0  0
   73.4709   43.0603   -1.4445 H   0  0  0  0  0  0  0  0  0  0  0  0
  1  2  2  0
  2  3  1  0
  2 42  1  0
  3  4  2  0
  4  5  1  0
  4  6  1  0
  6  8  1  0
  6  7  2  0
  7  1  1  0
  7 43  1  0
  8  9  1  6
  8 10  1  0
  9 44  1  0
  9 45  1  0
  9 46  1  0
 10 11  2  0
 11 12  1  0
 11 13  1  0
 12 17  1  0
 12 18  1  0
 14 13  1  6
 14 19  1  0
 14 15  1  0
 15 16  1  0
 15 47  1  0
 15 48  1  0
 16  8  1  0
 16 14  1  0
 16 49  1  1
 19 24  1  0
 19 20  1  0
 19 50  1  1
 20 21  1  0
 20 22  1  0
 20 23  1  0
 24 25  1  0
 25 51  1  0
 25 52  1  0
 25 53  1  0
 26  1  1  0
 26 27  1  0
 28 29  2  0
 29 30  1  0
 29 54  1  0
 30 31  2  0
 31 32  1  0
 32 26  1  0
 32 33  2  0
 33 34  1  0
 34 35  2  0
 34 55  1  0
 35 36  1  0
 35 56  1  0
 36 37  2  0
 36 31  1  0
 37 28  1  0
 38 28  1  0
 39 38  1  0
 39 57  1  0
 39 58  1  0
 40 41  3  0
 40 59  1  0
 41 39  1  0
M  END
>  <minimizedAffinity>  (4) 
-7.76043

>  <mol_id>  (4) 
37944

>  <source_index>  (4) 
3

>  <layer>  (4) 
L2

>  <uniprot>  (4) 
P56817

>  <paff>  (4) 
8.8096999999999994

>  <smiles>  (4) 
C#CCOc1cnc2c(Nc3cnc(F)c([C@@]4(C)N=C(N)S[C@@]5([C@H](OC)C(F)(F)F)C[C@H]54)c3)nccc2n1

$$$$
L2:P56817:46757
     RDKit          3D

 47 50  0  0  0  0  0  0  0  0999 V2000
   71.4469   45.6002   12.5644 N   0  0  0  0  0  0  0  0  0  0  0  0
   70.7469   46.7102   12.1587 N   0  0  0  0  0  0  0  0  0  0  0  0
   70.8616   47.0447   10.9095 C   0  0  0  0  0  0  0  0  0  0  0  0
   71.8528   46.3174   10.0255 C   0  0  0  0  0  0  0  0  0  0  0  0
   72.4384   45.2377   10.4357 N   0  0  0  0  0  0  0  0  0  0  0  0
   72.2126   44.7981   11.7128 C   0  0  0  0  0  0  0  0  0  0  0  0
   72.7128   43.7487   12.1148 O   0  0  0  0  0  0  0  0  0  0  0  0
   69.9871   48.1191   10.3873 C   0  0  0  0  0  0  0  0  0  0  0  0
   70.5285   49.3241    9.9275 C   0  0  0  0  0  0  0  0  0  0  0  0
   69.6823   50.3186    9.4348 C   0  0  0  0  0  0  0  0  0  0  0  0
   68.3043   50.1043    9.3863 C   0  0  0  0  0  0  0  0  0  0  0  0
   67.7672   48.8918    9.8199 C   0  0  0  0  0  0  0  0  0  0  0  0
   68.6078   47.8941   10.3143 C   0  0  0  0  0  0  0  0  0  0  0  0
   72.2196   46.8358    8.6858 C   0  0  0  0  0  0  0  0  0  0  0  0
   73.3733   47.6179    8.5596 C   0  0  0  0  0  0  0  0  0  0  0  0
   73.7368   48.1236    7.3113 C   0  0  0  0  0  0  0  0  0  0  0  0
   72.9427   47.8612    6.1948 C   0  0  0  0  0  0  0  0  0  0  0  0
   71.7781   47.1035    6.3248 C   0  0  0  0  0  0  0  0  0  0  0  0
   71.4084   46.5961    7.5715 C   0  0  0  0  0  0  0  0  0  0  0  0
   71.1905   45.1201   13.9103 C   0  0  0  0  0  0  0  0  0  0  0  0
   72.9733   45.3146   15.5520 O   0  0  0  0  0  0  0  0  0  0  0  0
   72.0480   45.8539   14.9520 C   0  0  0  0  0  0  0  0  0  0  0  0
   71.6080   47.1610   15.1479 N   0  0  0  0  0  0  0  0  0  0  0  0
   70.8527   47.4805   14.5546 H   0  0  0  0  0  0  0  0  0  0  0  0
   72.1261   48.1174   16.0460 C   0  0  0  0  0  0  0  0  0  0  0  0
   73.0790   49.0153   15.5402 C   0  0  0  0  0  0  0  0  0  0  0  0
   73.6404   49.9963   16.3618 C   0  0  0  0  0  0  0  0  0  0  0  0
   73.2489   50.0805   17.6907 C   0  0  0  0  0  0  0  0  0  0  0  0
   73.7854   51.0205   18.4793 F   0  0  0  0  0  0  0  0  0  0  0  0
   72.3082   49.2023   18.2102 C   0  0  0  0  0  0  0  0  0  0  0  0
   71.7461   48.2203   17.3875 C   0  0  0  0  0  0  0  0  0  0  0  0
   71.5488   49.4770    9.9525 H   0  0  0  0  0  0  0  0  0  0  0  0
   70.0763   51.2139    9.1058 H   0  0  0  0  0  0  0  0  0  0  0  0
   67.6807   50.8447    9.0287 H   0  0  0  0  0  0  0  0  0  0  0  0
   66.7485   48.7330    9.7749 H   0  0  0  0  0  0  0  0  0  0  0  0
   68.2135   46.9926   10.6254 H   0  0  0  0  0  0  0  0  0  0  0  0
   73.9540   47.8201    9.3884 H   0  0  0  0  0  0  0  0  0  0  0  0
   74.5929   48.6916    7.2139 H   0  0  0  0  0  0  0  0  0  0  0  0
   73.2172   48.2284    5.2702 H   0  0  0  0  0  0  0  0  0  0  0  0
   71.1892   46.9180    5.4979 H   0  0  0  0  0  0  0  0  0  0  0  0
   70.5405   46.0466    7.6708 H   0  0  0  0  0  0  0  0  0  0  0  0
   70.1573   45.2743   14.1418 H   0  0  0  0  0  0  0  0  0  0  0  0
   71.4422   44.0807   13.9457 H   0  0  0  0  0  0  0  0  0  0  0  0
   73.3679   48.9503   14.5516 H   0  0  0  0  0  0  0  0  0  0  0  0
   74.3407   50.6531   15.9834 H   0  0  0  0  0  0  0  0  0  0  0  0
   72.0244   49.2734   19.1998 H   0  0  0  0  0  0  0  0  0  0  0  0
   71.0462   47.5674   17.7735 H   0  0  0  0  0  0  0  0  0  0  0  0
  1  2  1  0
  2  3  2  0
  3  8  1  0
  3  4  1  0
  4 14  1  0
  4  5  2  0
  5  6  1  0
  6  7  2  0
  6  1  1  0
  8  9  2  0
  9 10  1  0
  9 32  1  0
 10 11  2  0
 10 33  1  0
 11 12  1  0
 11 34  1  0
 12 13  2  0
 12 35  1  0
 13  8  1  0
 13 36  1  0
 14 15  2  0
 15 16  1  0
 15 37  1  0
 16 17  2  0
 16 38  1  0
 17 18  1  0
 17 39  1  0
 18 19  2  0
 18 40  1  0
 19 14  1  0
 19 41  1  0
 20  1  1  0
 20 42  1  0
 20 43  1  0
 21 22  2  0
 22 20  1  0
 22 23  1  0
 23 25  1  0
 23 24  1  0
 25 26  2  0
 26 27  1  0
 26 44  1  0
 27 28  2  0
 27 45  1  0
 28 29  1  0
 28 30  1  0
 30 31  2  0
 30 46  1  0
 31 25  1  0
 31 47  1  0
M  END
>  <minimizedAffinity>  (5) 
-7.11613

>  <mol_id>  (5) 
46757

>  <source_index>  (5) 
4

>  <layer>  (5) 
L2

>  <uniprot>  (5) 
P56817

>  <paff>  (5) 
6.1585999999999999

>  <smiles>  (5) 
O=C(Cn1nc(-c2ccccc2)c(-c2ccccc2)nc1=O)Nc1ccc(F)cc1

$$$$
L2:P56817:66568
     RDKit          3D

 59 63  0  0  0  0  0  0  0  0999 V2000
   71.5018   49.0065    7.2659 C   0  0  0  0  0  0  0  0  0  0  0  0
   71.4676   50.2814    7.8173 C   0  0  0  0  0  0  0  0  0  0  0  0
   70.4259   50.7811    8.5163 N   0  0  0  0  0  0  0  0  0  0  0  0
   69.3743   49.9516    8.7111 C   0  0  0  0  0  0  0  0  0  0  0  0
   68.3459   50.4831    9.3916 F   0  0  0  0  0  0  0  0  0  0  0  0
   69.2938   48.6358    8.2435 C   0  0  0  0  0  0  0  0  0  0  0  0
   70.3976   48.1798    7.4994 C   0  0  0  0  0  0  0  0  0  0  0  0
   68.0461   47.7824    8.5046 C   0  0  1  0  0  0  0  0  0  0  0  0
   66.8024   48.3293    7.7557 C   0  0  0  0  0  0  0  0  0  0  0  0
   68.2563   46.4397    7.9697 N   0  0  0  0  0  0  0  0  0  0  0  0
   67.6800   45.3907    8.4198 C   0  0  0  0  0  0  0  0  0  0  0  0
   67.9360   44.1888    7.8433 N   0  0  0  0  0  0  0  0  0  0  0  0
   66.5677   45.2856    9.7569 S   0  0  0  0  0  0  0  0  0  0  0  0
   66.9738   46.7428   10.6607 C   0  0  1  0  0  0  0  0  0  0  0  0
   68.4518   46.9316   10.9981 C   0  0  0  0  0  0  0  0  0  0  0  0
   67.7782   47.8330    9.9891 C   0  0  1  0  0  0  0  0  0  0  0  0
   67.8471   43.3974    8.4667 H   0  0  0  0  0  0  0  0  0  0  0  0
   68.7976   44.2011    7.3090 H   0  0  0  0  0  0  0  0  0  0  0  0
   65.9039   47.1455   11.6987 C   0  0  2  0  0  0  0  0  0  0  0  0
   65.6768   46.0404   12.7544 C   0  0  0  0  0  0  0  0  0  0  0  0
   65.3139   46.5426   13.9563 F   0  0  0  0  0  0  0  0  0  0  0  0
   64.6790   45.2028   12.3762 F   0  0  0  0  0  0  0  0  0  0  0  0
   66.7810   45.2823   12.9487 F   0  0  0  0  0  0  0  0  0  0  0  0
   64.6711   47.4725   11.0072 O   0  0  0  0  0  0  0  0  0  0  0  0
   64.4868   48.8698   10.8217 C   0  0  0  0  0  0  0  0  0  0  0  0
   72.6337   48.5349    6.5622 N   0  0  0  0  0  0  0  0  0  0  0  0
   72.6757   48.9868    5.6474 H   0  0  0  0  0  0  0  0  0  0  0  0
   71.4853   45.3743    2.7356 C   0  0  0  0  0  0  0  0  0  0  0  0
   71.2409   46.7175    2.9291 C   0  0  0  0  0  0  0  0  0  0  0  0
   71.6332   47.3661    4.0480 N   0  0  0  0  0  0  0  0  0  0  0  0
   72.3002   46.6408    4.9908 C   0  0  0  0  0  0  0  0  0  0  0  0
   72.7851   47.1668    6.2074 C   0  0  0  0  0  0  0  0  0  0  0  0
   73.4153   46.4285    7.1565 N   0  0  0  0  0  0  0  0  0  0  0  0
   73.6040   45.1240    6.8998 C   0  0  0  0  0  0  0  0  0  0  0  0
   73.1874   44.5146    5.7364 C   0  0  0  0  0  0  0  0  0  0  0  0
   72.5327   45.2619    4.7769 C   0  0  0  0  0  0  0  0  0  0  0  0
   72.1309   44.6278    3.6558 N   0  0  0  0  0  0  0  0  0  0  0  0
   71.0413   44.8058    1.5640 O   0  0  0  0  0  0  0  0  0  0  0  0
   71.4661   45.5160    0.4015 C   0  0  0  0  0  0  0  0  0  0  0  0
   72.8356   43.8399   -1.1668 C   0  0  0  0  0  0  0  0  0  0  0  0
   72.2207   44.5941   -0.4623 C   0  0  0  0  0  0  0  0  0  0  0  0
   72.2929   50.8864    7.6838 H   0  0  0  0  0  0  0  0  0  0  0  0
   70.3925   47.2202    7.1198 H   0  0  0  0  0  0  0  0  0  0  0  0
   66.9793   48.2989    6.7009 H   0  0  0  0  0  0  0  0  0  0  0  0
   66.6198   49.3394    8.0578 H   0  0  0  0  0  0  0  0  0  0  0  0
   65.9503   47.7268    7.9919 H   0  0  0  0  0  0  0  0  0  0  0  0
   69.1718   46.2092   10.6747 H   0  0  0  0  0  0  0  0  0  0  0  0
   69.0109   47.0845   11.8975 H   0  0  0  0  0  0  0  0  0  0  0  0
   67.7064   48.8958    9.8883 H   0  0  0  0  0  0  0  0  0  0  0  0
   66.2519   48.0053   12.2320 H   0  0  0  0  0  0  0  0  0  0  0  0
   63.5640   49.0428   10.3085 H   0  0  0  0  0  0  0  0  0  0  0  0
   65.2962   49.2625   10.2424 H   0  0  0  0  0  0  0  0  0  0  0  0
   64.4615   49.3558   11.7746 H   0  0  0  0  0  0  0  0  0  0  0  0
   70.7421   47.2448    2.1955 H   0  0  0  0  0  0  0  0  0  0  0  0
   74.0850   44.5493    7.6093 H   0  0  0  0  0  0  0  0  0  0  0  0
   73.3629   43.5092    5.5834 H   0  0  0  0  0  0  0  0  0  0  0  0
   70.6124   45.8871   -0.1262 H   0  0  0  0  0  0  0  0  0  0  0  0
   72.0852   46.3419    0.6836 H   0  0  0  0  0  0  0  0  0  0  0  0
   73.3444   43.2159   -1.7497 H   0  0  0  0  0  0  0  0  0  0  0  0
  1  2  2  0
  2  3  1  0
  2 42  1  0
  3  4  2  0
  4  5  1  0
  4  6  1  0
  6  8  1  0
  6  7  2  0
  7  1  1  0
  7 43  1  0
  8  9  1  6
  8 10  1  0
  9 44  1  0
  9 45  1  0
  9 46  1  0
 10 11  2  0
 11 12  1  0
 11 13  1  0
 12 17  1  0
 12 18  1  0
 14 13  1  6
 14 19  1  0
 14 15  1  0
 15 16  1  0
 15 47  1  0
 15 48  1  0
 16  8  1  0
 16 14  1  0
 16 49  1  1
 19 24  1  0
 19 20  1  0
 19 50  1  1
 20 21  1  0
 20 22  1  0
 20 23  1  0
 24 25  1  0
 25 51  1  0
 25 52  1  0
 25 53  1  0
 26  1  1  0
 26 27  1  0
 28 29  2  0
 29 30  1  0
 29 54  1  0
 30 31  2  0
 31 32  1  0
 32 26  1  0
 32 33  2  0
 33 34  1  0
 34 35  2  0
 34 55  1  0
 35 36  1  0
 35 56  1  0
 36 37  2  0
 36 31  1  0
 37 28  1  0
 38 28  1  0
 39 38  1  0
 39 57  1  0
 39 58  1  0
 40 41  3  0
 40 59  1  0
 41 39  1  0
M  END
>  <minimizedAffinity>  (6) 
-7.80559

>  <mol_id>  (6) 
66568

>  <source_index>  (6) 
5

>  <layer>  (6) 
L2

>  <uniprot>  (6) 
P56817

>  <paff>  (6) 
8.7958999999999996

>  <smiles>  (6) 
C#CCOc1cnc2c(Nc3cnc(F)c([C@@]4(C)N=C(N)S[C@@]5([C@@H](OC)C(F)(F)F)C[C@H]54)c3)nccc2n1

$$$$
L2:P56817:67242
     RDKit          3D

 44 47  0  0  0  0  0  0  0  0999 V2000
   70.9861   47.8384    9.4348 C   0  0  0  0  0  0  0  0  0  0  0  0
   71.1182   48.1012   10.8115 C   0  0  0  0  0  0  0  0  0  0  0  0
   72.3418   47.9285   11.4681 C   0  0  0  0  0  0  0  0  0  0  0  0
   73.4134   47.4781   10.7097 C   0  0  0  0  0  0  0  0  0  0  0  0
   73.3365   47.1974    9.3886 N   0  0  0  0  0  0  0  0  0  0  0  0
   72.1383   47.3829    8.7891 C   0  0  0  0  0  0  0  0  0  0  0  0
   72.0957   47.0698    7.4843 F   0  0  0  0  0  0  0  0  0  0  0  0
   69.8251   48.8505    7.3929 C   0  0  0  0  0  0  0  0  0  0  0  0
   69.6631   47.9863    8.6713 C   0  0  1  0  0  0  0  0  0  0  0  0
   69.2264   46.6754    8.1998 N   0  0  0  0  0  0  0  0  0  0  0  0
   68.0051   46.3670    7.9793 C   0  0  0  0  0  0  0  0  0  0  0  0
   67.6964   45.1223    7.5353 N   0  0  0  0  0  0  0  0  0  0  0  0
   66.6096   47.3833    8.1984 S   0  0  0  0  0  0  0  0  0  0  0  0
   67.1984   48.5104    9.4091 C   0  0  1  0  0  0  0  0  0  0  0  0
   67.8757   47.9531   10.6489 C   0  0  0  0  0  0  0  0  0  0  0  0
   68.6910   48.6742    9.5975 C   0  0  1  0  0  0  0  0  0  0  0  0
   66.7768   44.7984    7.8061 H   0  0  0  0  0  0  0  0  0  0  0  0
   68.4382   44.4572    7.7238 H   0  0  0  0  0  0  0  0  0  0  0  0
   66.3124   49.7273    9.5716 C   0  0  0  0  0  0  0  0  0  0  0  0
   65.3699   49.7650    8.5894 F   0  0  0  0  0  0  0  0  0  0  0  0
   67.0539   50.8574    9.4277 F   0  0  0  0  0  0  0  0  0  0  0  0
   72.3936   48.2202   12.8421 N   0  0  0  0  0  0  0  0  0  0  0  0
   72.0176   47.4031   13.8908 C   0  0  0  0  0  0  0  0  0  0  0  0
   71.5638   46.2690   13.8104 O   0  0  0  0  0  0  0  0  0  0  0  0
   72.7479   49.1304   13.1301 H   0  0  0  0  0  0  0  0  0  0  0  0
   72.2158   48.0457   15.2325 C   0  0  0  0  0  0  0  0  0  0  0  0
   72.9632   49.2135   15.3456 C   0  0  0  0  0  0  0  0  0  0  0  0
   73.1219   49.7771   16.6113 C   0  0  0  0  0  0  0  0  0  0  0  0
   72.5331   49.1587   17.7095 C   0  0  0  0  0  0  0  0  0  0  0  0
   72.7061   49.8220   19.2821 Cl  0  0  0  0  0  0  0  0  0  0  0  0
   71.8037   47.9947   17.5044 C   0  0  0  0  0  0  0  0  0  0  0  0
   71.6257   47.4146   16.2908 N   0  0  0  0  0  0  0  0  0  0  0  0
   70.2978   48.4271   11.3461 H   0  0  0  0  0  0  0  0  0  0  0  0
   74.3223   47.3498   11.1814 H   0  0  0  0  0  0  0  0  0  0  0  0
   70.5128   48.3746    6.7254 H   0  0  0  0  0  0  0  0  0  0  0  0
   70.1987   49.8168    7.6606 H   0  0  0  0  0  0  0  0  0  0  0  0
   68.8756   48.9561    6.9111 H   0  0  0  0  0  0  0  0  0  0  0  0
   67.9780   46.8953   10.7732 H   0  0  0  0  0  0  0  0  0  0  0  0
   67.7332   48.0629   11.7037 H   0  0  0  0  0  0  0  0  0  0  0  0
   69.3818   49.4906    9.6317 H   0  0  0  0  0  0  0  0  0  0  0  0
   65.8584   49.6700   10.5388 H   0  0  0  0  0  0  0  0  0  0  0  0
   73.3894   49.6516   14.5141 H   0  0  0  0  0  0  0  0  0  0  0  0
   73.6700   50.6432   16.7319 H   0  0  0  0  0  0  0  0  0  0  0  0
   71.3706   47.5434   18.3253 H   0  0  0  0  0  0  0  0  0  0  0  0
  1  2  2  0
  2  3  1  0
  2 33  1  0
  3 22  1  0
  3  4  2  0
  4  5  1  0
  4 34  1  0
  5  6  2  0
  6  7  1  0
  6  1  1  0
  8 35  1  0
  8 36  1  0
  8 37  1  0
  9  8  1  6
  9  1  1  0
  9 10  1  0
 10 11  2  0
 11 12  1  0
 11 13  1  0
 12 17  1  0
 12 18  1  0
 13 14  1  0
 14 19  1  1
 14 15  1  0
 15 16  1  0
 15 38  1  0
 15 39  1  0
 16  9  1  0
 16 14  1  0
 16 40  1  1
 19 20  1  0
 19 21  1  0
 19 41  1  0
 22 23  1  0
 22 25  1  0
 23 24  2  0
 23 26  1  0
 26 27  2  0
 27 28  1  0
 27 42  1  0
 28 29  2  0
 28 43  1  0
 29 30  1  0
 29 31  1  0
 31 32  2  0
 31 44  1  0
 32 26  1  0
M  END
>  <minimizedAffinity>  (7) 
-7.10476

>  <mol_id>  (7) 
67242

>  <source_index>  (7) 
6

>  <layer>  (7) 
L2

>  <uniprot>  (7) 
P56817

>  <paff>  (7) 
8.7958999999999996

>  <smiles>  (7) 
C[C@]1(c2cc(NC(=O)c3ccc(Cl)cn3)cnc2F)N=C(N)S[C@@]2(C(F)F)C[C@@H]12

$$$$
L2:P56817:84180
     RDKit          3D

 48 52  0  0  0  0  0  0  0  0999 V2000
   72.3600   47.9542    7.6044 C   0  0  0  0  0  0  0  0  0  0  0  0
   73.1264   48.0051    8.7734 C   0  0  0  0  0  0  0  0  0  0  0  0
   72.5563   48.4193    9.9710 C   0  0  0  0  0  0  0  0  0  0  0  0
   73.3240   48.4826   11.0689 F   0  0  0  0  0  0  0  0  0  0  0  0
   71.2145   48.7744   10.0399 C   0  0  0  0  0  0  0  0  0  0  0  0
   70.7354   49.1960   11.2206 F   0  0  0  0  0  0  0  0  0  0  0  0
   70.3918   48.7079    8.9060 C   0  0  0  0  0  0  0  0  0  0  0  0
   71.0011   48.2997    7.6953 C   0  0  0  0  0  0  0  0  0  0  0  0
   68.9075   49.1134    8.9856 C   0  0  1  0  0  0  0  0  0  0  0  0
   68.7248   50.6517    9.0693 C   0  0  0  0  0  0  0  0  0  0  0  0
   68.2258   48.7123    7.7532 N   0  0  0  0  0  0  0  0  0  0  0  0
   66.9756   48.4447    7.6936 C   0  0  0  0  0  0  0  0  0  0  0  0
   66.4204   48.0920    6.5053 N   0  0  0  0  0  0  0  0  0  0  0  0
   65.8334   48.4483    9.0116 S   0  0  0  0  0  0  0  0  0  0  0  0
   66.8918   48.1703   10.3487 C   0  0  1  0  0  0  0  0  0  0  0  0
   67.8937   47.0467   10.3283 C   0  0  0  0  0  0  0  0  0  0  0  0
   68.3529   48.4868   10.2447 C   0  0  1  0  0  0  0  0  0  0  0  0
   67.1206   47.7675    5.8484 H   0  0  0  0  0  0  0  0  0  0  0  0
   65.6197   47.4802    6.5916 H   0  0  0  0  0  0  0  0  0  0  0  0
   72.9779   47.5290    6.4193 N   0  0  0  0  0  0  0  0  0  0  0  0
   73.3382   48.2686    5.8179 H   0  0  0  0  0  0  0  0  0  0  0  0
   71.2191   46.1726    1.9433 C   0  0  0  0  0  0  0  0  0  0  0  0
   71.2206   47.3329    2.7008 C   0  0  0  0  0  0  0  0  0  0  0  0
   71.7725   47.4344    3.9310 N   0  0  0  0  0  0  0  0  0  0  0  0
   72.3662   46.3179    4.4405 C   0  0  0  0  0  0  0  0  0  0  0  0
   72.9712   46.2974    5.7046 C   0  0  0  0  0  0  0  0  0  0  0  0
   73.5479   45.1927    6.2256 N   0  0  0  0  0  0  0  0  0  0  0  0
   73.5221   44.0913    5.4713 C   0  0  0  0  0  0  0  0  0  0  0  0
   72.9792   43.9861    4.2539 N   0  0  0  0  0  0  0  0  0  0  0  0
   72.4117   45.0955    3.7583 C   0  0  0  0  0  0  0  0  0  0  0  0
   71.8266   45.0497    2.4985 C   0  0  0  0  0  0  0  0  0  0  0  0
   71.1069   45.3903   -0.2964 C   0  0  0  0  0  0  0  0  0  0  0  0
   70.6149   46.2527    0.7234 O   0  0  0  0  0  0  0  0  0  0  0  0
   74.1216   47.7333    8.7463 H   0  0  0  0  0  0  0  0  0  0  0  0
   70.4221   48.2539    6.8423 H   0  0  0  0  0  0  0  0  0  0  0  0
   69.1143   51.1059    8.1823 H   0  0  0  0  0  0  0  0  0  0  0  0
   69.2500   51.0273    9.9225 H   0  0  0  0  0  0  0  0  0  0  0  0
   67.6841   50.8828    9.1609 H   0  0  0  0  0  0  0  0  0  0  0  0
   66.1003   48.4585   11.0085 H   0  0  0  0  0  0  0  0  0  0  0  0
   67.9677   46.4096    9.4718 H   0  0  0  0  0  0  0  0  0  0  0  0
   68.1148   46.2148   10.9639 H   0  0  0  0  0  0  0  0  0  0  0  0
   69.0620   49.0687   10.7956 H   0  0  0  0  0  0  0  0  0  0  0  0
   70.7724   48.1721    2.3010 H   0  0  0  0  0  0  0  0  0  0  0  0
   73.9613   43.2438    5.8637 H   0  0  0  0  0  0  0  0  0  0  0  0
   71.8428   44.1667    1.9645 H   0  0  0  0  0  0  0  0  0  0  0  0
   70.5523   45.5505   -1.1973 H   0  0  0  0  0  0  0  0  0  0  0  0
   70.9970   44.3722    0.0138 H   0  0  0  0  0  0  0  0  0  0  0  0
   72.1413   45.5999   -0.4724 H   0  0  0  0  0  0  0  0  0  0  0  0
  1  2  2  0
  2  3  1  0
  2 34  1  0
  3  4  1  0
  3  5  2  0
  5  6  1  0
  5  7  1  0
  7  9  1  0
  7  8  2  0
  8  1  1  0
  8 35  1  0
  9 10  1  1
  9 11  1  0
 10 36  1  0
 10 37  1  0
 10 38  1  0
 11 12  2  0
 12 13  1  0
 12 14  1  0
 13 18  1  0
 13 19  1  0
 14 15  1  0
 15 16  1  0
 15 39  1  1
 16 17  1  0
 16 40  1  0
 16 41  1  0
 17  9  1  0
 17 15  1  0
 17 42  1  1
 20  1  1  0
 20 21  1  0
 22 23  2  0
 23 24  1  0
 23 43  1  0
 24 25  2  0
 25 26  1  0
 26 20  1  0
 26 27  2  0
 27 28  1  0
 28 29  2  0
 28 44  1  0
 29 30  1  0
 30 31  2  0
 30 25  1  0
 31 22  1  0
 31 45  1  0
 32 33  1  0
 32 46  1  0
 32 47  1  0
 32 48  1  0
 33 22  1  0
M  END
>  <minimizedAffinity>  (8) 
-8.12731

>  <mol_id>  (8) 
84180

>  <source_index>  (8) 
7

>  <layer>  (8) 
L2

>  <uniprot>  (8) 
P56817

>  <paff>  (8) 
7.4558999999999997

>  <smiles>  (8) 
COc1cnc2c(Nc3cc(F)c(F)c([C@@]4(C)N=C(N)S[C@H]5C[C@H]54)c3)ncnc2c1

$$$$
L2:P56817:97357
     RDKit          3D

 63 68  0  0  0  0  0  0  0  0999 V2000
   69.4656   48.0039    8.8120 C   0  0  0  0  0  0  0  0  0  0  0  0
   70.5988   47.7593    7.9942 C   0  0  0  0  0  0  0  0  0  0  0  0
   71.5170   48.7656    7.6304 C   0  0  0  0  0  0  0  0  0  0  0  0
   71.2326   50.0733    8.0147 C   0  0  0  0  0  0  0  0  0  0  0  0
   70.1218   50.3428    8.8069 C   0  0  0  0  0  0  0  0  0  0  0  0
   69.8909   51.6064    9.1926 F   0  0  0  0  0  0  0  0  0  0  0  0
   69.2608   49.3286    9.2187 C   0  0  0  0  0  0  0  0  0  0  0  0
   68.2418   49.6737   10.0205 F   0  0  0  0  0  0  0  0  0  0  0  0
   69.5670   45.4153   11.1919 C   0  0  1  0  0  0  0  0  0  0  0  0
   69.8324   46.8490   11.5901 C   0  0  0  0  0  0  0  0  0  0  0  0
   68.6421   46.5258   10.7077 C   0  0  1  0  0  0  0  0  0  0  0  0
   68.5467   46.8399    9.2171 C   0  0  1  0  0  0  0  0  0  0  0  0
   67.0802   47.2721    8.9054 C   0  0  0  0  0  0  0  0  0  0  0  0
   68.6840   45.6261    8.4064 N   0  0  0  0  0  0  0  0  0  0  0  0
   69.5319   44.7010    8.6650 C   0  0  0  0  0  0  0  0  0  0  0  0
   69.6548   43.6282    7.8399 N   0  0  0  0  0  0  0  0  0  0  0  0
   70.6389   44.6910   10.0050 S   0  0  0  0  0  0  0  0  0  0  0  0
   70.5869   43.2310    7.8448 H   0  0  0  0  0  0  0  0  0  0  0  0
   69.3353   43.8501    6.9060 H   0  0  0  0  0  0  0  0  0  0  0  0
   68.9953   44.4451   12.2126 C   0  0  0  0  0  0  0  0  0  0  0  0
   70.7570   44.1854   13.7877 C   0  0  0  0  0  0  0  0  0  0  0  0
   69.4692   44.7225   13.5396 O   0  0  0  0  0  0  0  0  0  0  0  0
   72.6321   48.3999    6.8556 N   0  0  0  0  0  0  0  0  0  0  0  0
   72.8514   49.0609    6.1071 H   0  0  0  0  0  0  0  0  0  0  0  0
   73.1223   47.1131    6.4907 C   0  0  0  0  0  0  0  0  0  0  0  0
   73.9870   46.4530    7.2976 N   0  0  0  0  0  0  0  0  0  0  0  0
   74.4007   45.2342    6.9099 C   0  0  0  0  0  0  0  0  0  0  0  0
   73.9791   44.6233    5.7476 C   0  0  0  0  0  0  0  0  0  0  0  0
   73.0945   45.2879    4.9211 C   0  0  0  0  0  0  0  0  0  0  0  0
   72.6636   44.6724    3.7998 N   0  0  0  0  0  0  0  0  0  0  0  0
   71.7855   45.3562    3.0348 C   0  0  0  0  0  0  0  0  0  0  0  0
   71.3674   46.6333    3.3586 C   0  0  0  0  0  0  0  0  0  0  0  0
   71.7865   47.2704    4.4760 N   0  0  0  0  0  0  0  0  0  0  0  0
   72.6537   46.5837    5.2742 C   0  0  0  0  0  0  0  0  0  0  0  0
   71.2574   44.7795    1.9046 O   0  0  0  0  0  0  0  0  0  0  0  0
   71.4171   45.5841    0.7363 C   0  0  0  0  0  0  0  0  0  0  0  0
   72.1059   44.7380   -0.2700 C   0  0  0  0  0  0  0  0  0  0  0  0
   72.9976   45.0543   -1.1863 N   0  0  0  0  0  0  0  0  0  0  0  0
   73.2303   43.8426   -1.7869 C   0  0  0  0  0  0  0  0  0  0  0  0
   74.1851   43.6781   -2.9006 C   0  0  0  0  0  0  0  0  0  0  0  0
   72.5418   42.8140   -1.2730 N   0  0  0  0  0  0  0  0  0  0  0  0
   71.7864   43.4078   -0.2604 O   0  0  0  0  0  0  0  0  0  0  0  0
   70.7586   46.7998    7.6494 H   0  0  0  0  0  0  0  0  0  0  0  0
   71.8476   50.8444    7.7110 H   0  0  0  0  0  0  0  0  0  0  0  0
   70.6737   47.3693   11.1821 H   0  0  0  0  0  0  0  0  0  0  0  0
   69.9645   47.3611   12.5202 H   0  0  0  0  0  0  0  0  0  0  0  0
   67.6017   46.7682   10.7680 H   0  0  0  0  0  0  0  0  0  0  0  0
   66.8489   48.1655    9.4469 H   0  0  0  0  0  0  0  0  0  0  0  0
   66.4085   46.4928    9.1994 H   0  0  0  0  0  0  0  0  0  0  0  0
   66.9775   47.4544    7.8561 H   0  0  0  0  0  0  0  0  0  0  0  0
   67.9281   44.5223   12.2033 H   0  0  0  0  0  0  0  0  0  0  0  0
   69.3132   43.4587   11.9466 H   0  0  0  0  0  0  0  0  0  0  0  0
   71.0560   44.4228   14.7873 H   0  0  0  0  0  0  0  0  0  0  0  0
   71.4577   44.6052   13.0966 H   0  0  0  0  0  0  0  0  0  0  0  0
   70.7296   43.1226   13.6666 H   0  0  0  0  0  0  0  0  0  0  0  0
   75.0685   44.7294    7.5134 H   0  0  0  0  0  0  0  0  0  0  0  0
   74.3202   43.6817    5.4986 H   0  0  0  0  0  0  0  0  0  0  0  0
   70.7123   47.1180    2.7254 H   0  0  0  0  0  0  0  0  0  0  0  0
   72.0087   46.4471    0.9603 H   0  0  0  0  0  0  0  0  0  0  0  0
   70.4713   45.9260    0.3708 H   0  0  0  0  0  0  0  0  0  0  0  0
   74.6154   44.6269   -3.1446 H   0  0  0  0  0  0  0  0  0  0  0  0
   73.6725   43.2885   -3.7552 H   0  0  0  0  0  0  0  0  0  0  0  0
   74.9595   42.9996   -2.6092 H   0  0  0  0  0  0  0  0  0  0  0  0
  1  2  2  0
  2  3  1  0
  2 43  1  0
  3 23  1  0
  3  4  2  0
  4  5  1  0
  4 44  1  0
  5  6  1  0
  5  7  2  0
  7  8  1  0
  7  1  1  0
  9 20  1  1
  9 10  1  0
 10 11  1  0
 10 45  1  0
 10 46  1  0
 11 12  1  0
 11  9  1  0
 11 47  1  1
 12 13  1  1
 12  1  1  0
 12 14  1  0
 13 48  1  0
 13 49  1  0
 13 50  1  0
 14 15  2  0
 15 16  1  0
 15 17  1  0
 16 18  1  0
 16 19  1  0
 17  9  1  0
 20 51  1  0
 20 52  1  0
 21 22  1  0
 21 53  1  0
 21 54  1  0
 21 55  1  0
 22 20  1  0
 23 25  1  0
 23 24  1  0
 25 26  2  0
 26 27  1  0
 27 28  2  0
 27 56  1  0
 28 29  1  0
 28 57  1  0
 29 30  2  0
 30 31  1  0
 31 35  1  0
 31 32  2  0
 32 33  1  0
 32 58  1  0
 33 34  2  0
 34 25  1  0
 34 29  1  0
 35 36  1  0
 36 37  1  0
 36 59  1  0
 36 60  1  0
 37 38  2  0
 38 39  1  0
 39 40  1  0
 39 41  2  0
 40 61  1  0
 40 62  1  0
 40 63  1  0
 41 42  1  0
 42 37  1  0
M  END
>  <minimizedAffinity>  (9) 
-8.66879

>  <mol_id>  (9) 
97357

>  <source_index>  (9) 
8

>  <layer>  (9) 
L2

>  <uniprot>  (9) 
P56817

>  <paff>  (9) 
8.109

>  <smiles>  (9) 
COC[C@]12C[C@H]1[C@@](C)(c1cc(Nc3nccc4nc(OCc5nc(C)no5)cnc34)cc(F)c1F)N=C(N)S2

$$$$
L2:P56817:107160
     RDKit          3D

 55 59  0  0  0  0  0  0  0  0999 V2000
   70.3477   49.3771    7.7653 C   0  0  0  0  0  0  0  0  0  0  0  0
   70.0712   50.6030    8.3693 C   0  0  0  0  0  0  0  0  0  0  0  0
   68.8729   50.8069    9.0554 C   0  0  0  0  0  0  0  0  0  0  0  0
   67.9494   49.7732    9.1702 C   0  0  0  0  0  0  0  0  0  0  0  0
   66.8239   50.0174    9.8559 F   0  0  0  0  0  0  0  0  0  0  0  0
   68.1900   48.5093    8.6192 C   0  0  0  0  0  0  0  0  0  0  0  0
   69.3993   48.3443    7.9105 C   0  0  0  0  0  0  0  0  0  0  0  0
   67.1705   47.3662    8.7430 C   0  0  1  0  0  0  0  0  0  0  0  0
   67.4557   46.2407    7.8202 N   0  0  0  0  0  0  0  0  0  0  0  0
   68.2005   45.2458    8.1286 C   0  0  0  0  0  0  0  0  0  0  0  0
   68.4484   44.2696    7.2190 N   0  0  0  0  0  0  0  0  0  0  0  0
   69.0273   45.0186    9.6385 S   0  0  0  0  0  0  0  0  0  0  0  0
   67.7705   45.6644   10.6718 C   0  0  1  0  0  0  0  0  0  0  0  0
   68.0280   47.0156   11.2868 C   0  0  0  0  0  0  0  0  0  0  0  0
   66.9975   46.8737   10.1775 C   0  0  1  0  0  0  0  0  0  0  0  0
   69.3283   43.7889    7.3488 H   0  0  0  0  0  0  0  0  0  0  0  0
   68.2474   44.5519    6.2688 H   0  0  0  0  0  0  0  0  0  0  0  0
   67.0130   44.6321   11.4735 C   0  0  0  0  0  0  0  0  0  0  0  0
   67.1453   44.9104   12.8643 O   0  0  0  0  0  0  0  0  0  0  0  0
   66.6051   44.2551   13.3351 H   0  0  0  0  0  0  0  0  0  0  0  0
   65.7935   47.9006    8.2231 C   0  0  0  0  0  0  0  0  0  0  0  0
   65.8722   48.3514    6.9409 F   0  0  0  0  0  0  0  0  0  0  0  0
   71.5367   49.0892    7.0829 N   0  0  0  0  0  0  0  0  0  0  0  0
   71.9805   49.8787    6.6177 H   0  0  0  0  0  0  0  0  0  0  0  0
   72.7657   45.7383    3.5625 C   0  0  0  0  0  0  0  0  0  0  0  0
   71.9484   46.8536    3.6639 C   0  0  0  0  0  0  0  0  0  0  0  0
   71.8062   47.6058    4.7821 N   0  0  0  0  0  0  0  0  0  0  0  0
   72.5092   47.2453    5.8878 C   0  0  0  0  0  0  0  0  0  0  0  0
   72.4273   47.9816    7.0896 C   0  0  0  0  0  0  0  0  0  0  0  0
   73.1204   47.6508    8.2089 N   0  0  0  0  0  0  0  0  0  0  0  0
   73.9192   46.5695    8.1605 C   0  0  0  0  0  0  0  0  0  0  0  0
   74.0709   45.7816    7.0374 C   0  0  0  0  0  0  0  0  0  0  0  0
   73.3600   46.1229    5.8815 C   0  0  0  0  0  0  0  0  0  0  0  0
   73.4747   45.3673    4.6995 C   0  0  0  0  0  0  0  0  0  0  0  0
   72.7852   45.1217    2.3476 O   0  0  0  0  0  0  0  0  0  0  0  0
   71.6351   45.2739    1.5167 C   0  0  0  0  0  0  0  0  0  0  0  0
   72.1760   44.2916   -0.9089 C   0  0  0  0  0  0  0  0  0  0  0  0
   71.9344   44.7275    0.1848 C   0  0  0  0  0  0  0  0  0  0  0  0
   70.7606   51.3685    8.3084 H   0  0  0  0  0  0  0  0  0  0  0  0
   68.6717   51.7265    9.4784 H   0  0  0  0  0  0  0  0  0  0  0  0
   69.5979   47.4277    7.4799 H   0  0  0  0  0  0  0  0  0  0  0  0
   68.9513   47.5220   11.0971 H   0  0  0  0  0  0  0  0  0  0  0  0
   68.0171   47.4070   12.2826 H   0  0  0  0  0  0  0  0  0  0  0  0
   65.9743   47.1733   10.0867 H   0  0  0  0  0  0  0  0  0  0  0  0
   67.4095   43.6601   11.2663 H   0  0  0  0  0  0  0  0  0  0  0  0
   65.9782   44.6640   11.2033 H   0  0  0  0  0  0  0  0  0  0  0  0
   65.4750   48.7048    8.8530 H   0  0  0  0  0  0  0  0  0  0  0  0
   65.0948   47.0906    8.2462 H   0  0  0  0  0  0  0  0  0  0  0  0
   71.4099   47.1307    2.8283 H   0  0  0  0  0  0  0  0  0  0  0  0
   74.4476   46.3151    9.0097 H   0  0  0  0  0  0  0  0  0  0  0  0
   74.6945   44.9594    7.0499 H   0  0  0  0  0  0  0  0  0  0  0  0
   74.0862   44.5363    4.6768 H   0  0  0  0  0  0  0  0  0  0  0  0
   70.8099   44.7444    1.9451 H   0  0  0  0  0  0  0  0  0  0  0  0
   71.3814   46.3102    1.4349 H   0  0  0  0  0  0  0  0  0  0  0  0
   72.3758   43.9311   -1.8134 H   0  0  0  0  0  0  0  0  0  0  0  0
  1  2  2  0
  2  3  1  0
  2 39  1  0
  3  4  2  0
  3 40  1  0
  4  5  1  0
  4  6  1  0
  6  8  1  0
  6  7  2  0
  7  1  1  0
  7 41  1  0
  8 21  1  6
  8  9  1  0
  9 10  2  0
 10 11  1  0
 10 12  1  0
 11 16  1  0
 11 17  1  0
 12 13  1  0
 13 18  1  1
 13 14  1  0
 14 15  1  0
 14 42  1  0
 14 43  1  0
 15  8  1  0
 15 13  1  0
 15 44  1  1
 18 19  1  0
 18 45  1  0
 18 46  1  0
 19 20  1  0
 21 22  1  0
 21 47  1  0
 21 48  1  0
 23  1  1  0
 23 24  1  0
 25 26  2  0
 26 27  1  0
 26 49  1  0
 27 28  2  0
 28 29  1  0
 29 23  1  0
 29 30  2  0
 30 31  1  0
 31 32  2  0
 31 50  1  0
 32 33  1  0
 32 51  1  0
 33 34  2  0
 33 28  1  0
 34 25  1  0
 34 52  1  0
 35 25  1  0
 36 35  1  0
 36 53  1  0
 36 54  1  0
 37 38  3  0
 37 55  1  0
 38 36  1  0
M  END
>  <minimizedAffinity>  (10) 
-8.05621

>  <mol_id>  (10) 
107160

>  <source_index>  (10) 
9

>  <layer>  (10) 
L2

>  <uniprot>  (10) 
P56817

>  <paff>  (10) 
7.9787999999999997

>  <smiles>  (10) 
C#CCOc1cnc2c(Nc3ccc(F)c([C@@]4(CF)N=C(N)S[C@@]5(CO)C[C@H]54)c3)nccc2c1

$$$$
