L3:Q62645:2221
     RDKit          3D

 40 41  0  0  0  0  0  0  0  0999 V2000
    2.7923   41.3908   12.0155 C   0  0  0  0  0  0  0  0  0  0  0  0
    2.2631   40.1631   12.3504 C   0  0  0  0  0  0  0  0  0  0  0  0
    3.2673   39.2342   12.7558 C   0  0  0  0  0  0  0  0  0  0  0  0
    4.5421   39.7727   12.7072 C   0  0  0  0  0  0  0  0  0  0  0  0
    4.4936   41.4079   12.1811 S   0  0  0  0  0  0  0  0  0  0  0  0
    1.8813   42.8632   10.1860 C   0  0  0  0  0  0  0  0  0  0  0  0
    1.2243   44.0545    9.8244 C   0  0  0  0  0  0  0  0  0  0  0  0
    0.7837   44.9560   10.7935 C   0  0  0  0  0  0  0  0  0  0  0  0
    0.9949   44.6850   12.1408 C   0  0  0  0  0  0  0  0  0  0  0  0
    1.6488   43.5123   12.5180 C   0  0  0  0  0  0  0  0  0  0  0  0
    2.0969   42.5929   11.5536 C   0  0  0  0  0  0  0  0  0  0  0  0
    1.1885   41.5040    8.1842 C   0  0  0  0  0  0  0  0  0  0  0  0
    2.3392   41.9364    9.0814 C   0  0  0  0  0  0  0  0  0  0  0  0
    5.8333   39.1764   13.0286 C   0  0  0  0  0  0  0  0  0  0  0  0
    6.1891   38.8544   14.1608 O   0  0  0  0  0  0  0  0  0  0  0  0
    6.6859   39.0000   11.9500 N   0  0  0  0  0  0  0  0  0  0  0  0
    6.4725   39.4926   11.0923 H   0  0  0  0  0  0  0  0  0  0  0  0
    8.0581   38.5586   12.1479 C   0  0  0  0  0  0  0  0  0  0  0  0
    8.8317   38.3873   10.8264 C   0  0  1  0  0  0  0  0  0  0  0  0
   10.2928   38.2464   11.0357 N   0  0  0  0  0  0  0  0  0  0  0  0
   10.6167   38.9640   11.6825 H   0  0  0  0  0  0  0  0  0  0  0  0
   10.4766   37.3381   11.4649 H   0  0  0  0  0  0  0  0  0  0  0  0
    8.2648   37.1524   10.1199 C   0  0  0  0  0  0  0  0  0  0  0  0
    7.6477   36.2430   10.6559 O   0  0  0  0  0  0  0  0  0  0  0  0
    8.5871   37.0657    8.8093 O   0  0  0  0  0  0  0  0  0  0  0  0
    8.1278   36.2569    8.5018 H   0  0  0  0  0  0  0  0  0  0  0  0
    1.2560   39.9411   12.3123 H   0  0  0  0  0  0  0  0  0  0  0  0
    3.0656   38.2667   13.0528 H   0  0  0  0  0  0  0  0  0  0  0  0
    1.0661   44.2643    8.8264 H   0  0  0  0  0  0  0  0  0  0  0  0
    0.3014   45.8234   10.5107 H   0  0  0  0  0  0  0  0  0  0  0  0
    0.6687   45.3497   12.8597 H   0  0  0  0  0  0  0  0  0  0  0  0
    1.8059   43.3168   13.5191 H   0  0  0  0  0  0  0  0  0  0  0  0
    1.5575   40.8520    7.4202 H   0  0  0  0  0  0  0  0  0  0  0  0
    0.7444   42.3666    7.7331 H   0  0  0  0  0  0  0  0  0  0  0  0
    0.4546   40.9894    8.7685 H   0  0  0  0  0  0  0  0  0  0  0  0
    3.0694   42.4434    8.4859 H   0  0  0  0  0  0  0  0  0  0  0  0
    2.7505   41.0594    9.5360 H   0  0  0  0  0  0  0  0  0  0  0  0
    8.0436   37.6186   12.6589 H   0  0  0  0  0  0  0  0  0  0  0  0
    8.5587   39.3144   12.7163 H   0  0  0  0  0  0  0  0  0  0  0  0
    8.7058   39.2659   10.2288 H   0  0  0  0  0  0  0  0  0  0  0  0
  1  2  2  0
  2  3  1  0
  2 27  1  0
  3  4  2  0
  3 28  1  0
  4 14  1  0
  4  5  1  0
  5  1  1  0
  6  7  2  0
  7  8  1  0
  7 29  1  0
  8  9  2  0
  8 30  1  0
  9 10  1  0
  9 31  1  0
 10 11  2  0
 10 32  1  0
 11  1  1  0
 11  6  1  0
 12 13  1  0
 12 33  1  0
 12 34  1  0
 12 35  1  0
 13  6  1  0
 13 36  1  0
 13 37  1  0
 14 15  2  0
 14 16  1  0
 16 18  1  0
 16 17  1  0
 18 19  1  0
 18 38  1  0
 18 39  1  0
 19 20  1  0
 19 23  1  0
 19 40  1  6
 20 21  1  0
 20 22  1  0
 23 24  2  0
 23 25  1  0
 25 26  1  0
M  END
>  <minimizedAffinity>  (1) 
-6.14287

>  <mol_id>  (1) 
2221

>  <source_index>  (1) 
0

>  <layer>  (1) 
L3

>  <uniprot>  (1) 
Q62645

>  <paff>  (1) 
7.0914999999999999

>  <smiles>  (1) 
CCc1ccccc1-c1ccc(C(=O)NC[C@@H](N)C(=O)O)s1

$$$$
L3:Q62645:24323
     RDKit          3D

 10  9  0  0  0  0  0  0  0  0999 V2000
    8.9527   37.8009   12.5640 N   0  0  0  0  0  0  0  0  0  0  0  0
    8.4642   38.2802   11.2572 C   0  0  0  0  0  0  0  0  0  0  0  0
    9.8054   37.2599   12.4041 H   0  0  0  0  0  0  0  0  0  0  0  0
    8.2864   37.1103   12.9172 H   0  0  0  0  0  0  0  0  0  0  0  0
    8.2525   37.1214   10.2933 C   0  0  0  0  0  0  0  0  0  0  0  0
    7.7400   36.0427   10.5492 O   0  0  0  0  0  0  0  0  0  0  0  0
    8.7027   37.3908    9.0522 O   0  0  0  0  0  0  0  0  0  0  0  0
    8.5073   36.5754    8.5442 H   0  0  0  0  0  0  0  0  0  0  0  0
    9.1835   38.9542   10.8409 H   0  0  0  0  0  0  0  0  0  0  0  0
    7.5271   38.7750   11.4051 H   0  0  0  0  0  0  0  0  0  0  0  0
  1  2  1  0
  1  3  1  0
  1  4  1  0
  2  5  1  0
  2  9  1  0
  2 10  1  0
  5  6  2  0
  5  7  1  0
  7  8  1  0
M  END
>  <minimizedAffinity>  (2) 
-4.70787

>  <mol_id>  (2) 
24323

>  <source_index>  (2) 
1

>  <layer>  (2) 
L3

>  <uniprot>  (2) 
Q62645

>  <paff>  (2) 
6.8860999999999999

>  <smiles>  (2) 
NCC(=O)O

$$$$
L3:Q62645:38593
     RDKit          3D

 44 47  0  0  0  0  0  0  0  0999 V2000
   14.5860   37.7868   16.3951 C   0  0  0  0  0  0  0  0  0  0  0  0
   14.2443   36.3315   16.3597 C   0  0  0  0  0  0  0  0  0  0  0  0
   13.8520   35.5296   17.8243 S   0  0  0  0  0  0  0  0  0  0  0  0
   13.5840   34.0476   17.0314 C   0  0  0  0  0  0  0  0  0  0  0  0
   13.1986   32.9407   17.7150 N   0  0  0  0  0  0  0  0  0  0  0  0
   13.0410   31.8882   16.9786 C   0  0  0  0  0  0  0  0  0  0  0  0
   13.2612   31.8214   15.6160 N   0  0  0  0  0  0  0  0  0  0  0  0
   13.6199   32.9457   14.8766 C   0  0  0  0  0  0  0  0  0  0  0  0
   13.7684   32.9192   13.6569 O   0  0  0  0  0  0  0  0  0  0  0  0
   13.8022   34.1451   15.6747 C   0  0  0  0  0  0  0  0  0  0  0  0
   14.1905   35.4671   15.2758 C   0  0  0  0  0  0  0  0  0  0  0  0
   14.4901   35.9203   13.9259 C   0  0  0  0  0  0  0  0  0  0  0  0
   13.4901   36.5068   13.1429 C   0  0  0  0  0  0  0  0  0  0  0  0
   13.7838   36.9508   11.8517 C   0  0  0  0  0  0  0  0  0  0  0  0
   15.0773   36.8135   11.3387 C   0  0  0  0  0  0  0  0  0  0  0  0
   15.3684   37.3841    9.7339 Cl  0  0  0  0  0  0  0  0  0  0  0  0
   16.0797   36.2290   12.1220 C   0  0  0  0  0  0  0  0  0  0  0  0
   17.6986   36.0261   11.5519 Cl  0  0  0  0  0  0  0  0  0  0  0  0
   15.7851   35.7826   13.4138 C   0  0  0  0  0  0  0  0  0  0  0  0
   13.0354   30.5795   14.8960 C   0  0  0  0  0  0  0  0  0  0  0  0
   11.5440   30.4381   14.5982 C   0  0  0  0  0  0  0  0  0  0  0  0
   10.6994   30.4821   15.4935 O   0  0  0  0  0  0  0  0  0  0  0  0
   11.2056   30.1925   13.2916 N   0  0  0  0  0  0  0  0  0  0  0  0
   11.8838   30.5845   12.0621 C   0  0  0  0  0  0  0  0  0  0  0  0
   10.5493   30.3144   11.3300 C   0  0  0  0  0  0  0  0  0  0  0  0
   10.4773   28.9705   10.6191 C   0  0  0  0  0  0  0  0  0  0  0  0
   10.1563   31.2833   10.4675 F   0  0  0  0  0  0  0  0  0  0  0  0
    9.8711   30.3450   12.7166 C   0  0  0  0  0  0  0  0  0  0  0  0
   14.5292   38.1421   17.4028 H   0  0  0  0  0  0  0  0  0  0  0  0
   13.8946   38.3304   15.7857 H   0  0  0  0  0  0  0  0  0  0  0  0
   15.5787   37.9293   16.0221 H   0  0  0  0  0  0  0  0  0  0  0  0
   12.7241   31.0259   17.4487 H   0  0  0  0  0  0  0  0  0  0  0  0
   12.5350   36.6114   13.5195 H   0  0  0  0  0  0  0  0  0  0  0  0
   13.0443   37.3813   11.2748 H   0  0  0  0  0  0  0  0  0  0  0  0
   16.5239   35.3508   13.9906 H   0  0  0  0  0  0  0  0  0  0  0  0
   13.3611   29.7543   15.4942 H   0  0  0  0  0  0  0  0  0  0  0  0
   13.5866   30.5893   13.9790 H   0  0  0  0  0  0  0  0  0  0  0  0
   12.6906   29.9442   11.7725 H   0  0  0  0  0  0  0  0  0  0  0  0
   12.3986   31.5183   11.9733 H   0  0  0  0  0  0  0  0  0  0  0  0
   10.9696   29.0413    9.6717 H   0  0  0  0  0  0  0  0  0  0  0  0
    9.4528   28.7007   10.4693 H   0  0  0  0  0  0  0  0  0  0  0  0
   10.9589   28.2248   11.2165 H   0  0  0  0  0  0  0  0  0  0  0  0
    9.2056   29.5292   12.9074 H   0  0  0  0  0  0  0  0  0  0  0  0
    9.2165   31.1393   13.0089 H   0  0  0  0  0  0  0  0  0  0  0  0
  1  2  1  0
  1 29  1  0
  1 30  1  0
  1 31  1  0
  2  3  1  0
  3  4  1  0
  4  5  1  0
  5  6  2  0
  6  7  1  0
  6 32  1  0
  7 20  1  0
  7  8  1  0
  8  9  2  0
  8 10  1  0
 10 11  1  0
 10  4  2  0
 11 12  1  0
 11  2  2  0
 12 13  2  0
 13 14  1  0
 13 33  1  0
 14 15  2  0
 14 34  1  0
 15 16  1  0
 15 17  1  0
 17 18  1  0
 17 19  2  0
 19 12  1  0
 19 35  1  0
 20 21  1  0
 20 36  1  0
 20 37  1  0
 21 22  2  0
 21 23  1  0
 23 24  1  0
 24 25  1  0
 24 38  1  0
 24 39  1  0
 25 26  1  0
 25 27  1  0
 25 28  1  0
 26 40  1  0
 26 41  1  0
 26 42  1  0
 28 23  1  0
 28 43  1  0
 28 44  1  0
M  END
>  <minimizedAffinity>  (3) 
-4.80071

>  <mol_id>  (3) 
38593

>  <source_index>  (3) 
2

>  <layer>  (3) 
L3

>  <uniprot>  (3) 
Q62645

>  <paff>  (3) 
6

>  <smiles>  (3) 
Cc1sc2ncn(CC(=O)N3CC(C)(F)C3)c(=O)c2c1-c1ccc(Cl)c(Cl)c1

$$$$
L3:Q62645:43699
     RDKit          3D

 34 35  0  0  0  0  0  0  0  0999 V2000
    6.7787   39.1773   12.0094 N   0  0  0  0  0  0  0  0  0  0  0  0
    5.8613   39.1802   13.0440 C   0  0  0  0  0  0  0  0  0  0  0  0
    6.1634   38.7568   14.1575 O   0  0  0  0  0  0  0  0  0  0  0  0
    6.4389   39.3155   11.0641 H   0  0  0  0  0  0  0  0  0  0  0  0
    4.5450   39.7091   12.6989 C   0  0  0  0  0  0  0  0  0  0  0  0
    4.1571   40.9880   12.3340 C   0  0  0  0  0  0  0  0  0  0  0  0
    2.7632   41.0694   12.0763 C   0  0  0  0  0  0  0  0  0  0  0  0
    1.9711   42.7017   11.5423 Br  0  0  0  0  0  0  0  0  0  0  0  0
    2.1019   39.8769   12.2547 C   0  0  0  0  0  0  0  0  0  0  0  0
    3.1929   38.6453   12.7314 S   0  0  0  0  0  0  0  0  0  0  0  0
    0.6840   39.5499   12.0979 C   0  0  0  0  0  0  0  0  0  0  0  0
    0.2770   38.8544   10.9468 C   0  0  0  0  0  0  0  0  0  0  0  0
   -1.0661   38.5300   10.7450 C   0  0  0  0  0  0  0  0  0  0  0  0
   -2.0206   38.8975   11.6899 C   0  0  0  0  0  0  0  0  0  0  0  0
   -1.6342   39.5894   12.8379 C   0  0  0  0  0  0  0  0  0  0  0  0
   -0.2888   39.9162   13.0435 C   0  0  0  0  0  0  0  0  0  0  0  0
    0.1465   40.8563   14.6389 Br  0  0  0  0  0  0  0  0  0  0  0  0
    8.0740   38.5208   12.1204 C   0  0  0  0  0  0  0  0  0  0  0  0
   10.2343   38.2836   10.9273 N   0  0  0  0  0  0  0  0  0  0  0  0
    8.7629   38.3320   10.7583 C   0  0  1  0  0  0  0  0  0  0  0  0
   10.5785   39.2207   11.1336 H   0  0  0  0  0  0  0  0  0  0  0  0
   10.6427   38.0139   10.0284 H   0  0  0  0  0  0  0  0  0  0  0  0
    8.2674   37.0482   10.0805 C   0  0  0  0  0  0  0  0  0  0  0  0
    7.6321   36.1447   10.6060 O   0  0  0  0  0  0  0  0  0  0  0  0
    8.5295   37.0114    8.7527 O   0  0  0  0  0  0  0  0  0  0  0  0
    8.1737   36.1467    8.4588 H   0  0  0  0  0  0  0  0  0  0  0  0
    4.8051   41.7876   12.2584 H   0  0  0  0  0  0  0  0  0  0  0  0
    0.9792   38.5800   10.2420 H   0  0  0  0  0  0  0  0  0  0  0  0
   -1.3513   38.0179    9.8956 H   0  0  0  0  0  0  0  0  0  0  0  0
   -3.0133   38.6581   11.5410 H   0  0  0  0  0  0  0  0  0  0  0  0
   -2.3424   39.8611   13.5377 H   0  0  0  0  0  0  0  0  0  0  0  0
    8.7071   39.1163   12.7445 H   0  0  0  0  0  0  0  0  0  0  0  0
    7.9089   37.5489   12.5364 H   0  0  0  0  0  0  0  0  0  0  0  0
    8.5150   39.1659   10.1354 H   0  0  0  0  0  0  0  0  0  0  0  0
  1  2  1  0
  1  4  1  0
  2  3  2  0
  2  5  1  0
  5  6  2  0
  6  7  1  0
  6 27  1  0
  7  8  1  0
  7  9  2  0
  9 11  1  0
  9 10  1  0
 10  5  1  0
 11 12  2  0
 12 13  1  0
 12 28  1  0
 13 14  2  0
 13 29  1  0
 14 15  1  0
 14 30  1  0
 15 16  2  0
 15 31  1  0
 16 17  1  0
 16 11  1  0
 18  1  1  0
 18 32  1  0
 18 33  1  0
 19 20  1  0
 19 21  1  0
 19 22  1  0
 20 18  1  0
 20 23  1  0
 20 34  1  6
 23 24  2  0
 23 25  1  0
 25 26  1  0
M  END
>  <minimizedAffinity>  (4) 
-7.21281

>  <mol_id>  (4) 
43699

>  <source_index>  (4) 
3

>  <layer>  (4) 
L3

>  <uniprot>  (4) 
Q62645

>  <paff>  (4) 
7.7958999999999996

>  <smiles>  (4) 
N[C@H](CNC(=O)c1cc(Br)c(-c2ccccc2Br)s1)C(=O)O

$$$$
L3:Q62645:53381
     RDKit          3D

 14 13  0  0  0  0  0  0  0  0999 V2000
   10.2697   38.2733   10.8508 N   0  0  0  0  0  0  0  0  0  0  0  0
    8.7834   38.2996   10.6877 C   0  0  1  0  0  0  0  0  0  0  0  0
   10.6779   38.1643    9.9181 H   0  0  0  0  0  0  0  0  0  0  0  0
   10.5160   37.3975   11.3225 H   0  0  0  0  0  0  0  0  0  0  0  0
    8.2916   37.0227   10.0141 C   0  0  0  0  0  0  0  0  0  0  0  0
    7.7573   36.0747   10.5703 O   0  0  0  0  0  0  0  0  0  0  0  0
    8.5278   36.9915    8.6891 O   0  0  0  0  0  0  0  0  0  0  0  0
    8.1908   36.1168    8.3992 H   0  0  0  0  0  0  0  0  0  0  0  0
    8.1331   38.4646   12.0642 C   0  0  0  0  0  0  0  0  0  0  0  0
    8.8435   37.6910   13.0344 O   0  0  0  0  0  0  0  0  0  0  0  0
    9.1641   36.9057   12.5421 H   0  0  0  0  0  0  0  0  0  0  0  0
    8.5110   39.1242   10.0626 H   0  0  0  0  0  0  0  0  0  0  0  0
    7.1175   38.1309   12.0190 H   0  0  0  0  0  0  0  0  0  0  0  0
    8.1628   39.4963   12.3462 H   0  0  0  0  0  0  0  0  0  0  0  0
  1  2  1  0
  1  3  1  0
  1  4  1  0
  2  9  1  0
  2  5  1  0
  2 12  1  6
  5  6  2  0
  5  7  1  0
  7  8  1  0
  9 10  1  0
  9 13  1  0
  9 14  1  0
 10 11  1  0
M  END
>  <minimizedAffinity>  (5) 
-6.07116

>  <mol_id>  (5) 
53381

>  <source_index>  (5) 
4

>  <layer>  (5) 
L3

>  <uniprot>  (5) 
Q62645

>  <paff>  (5) 
6.7695999999999996

>  <smiles>  (5) 
N[C@H](CO)C(=O)O

$$$$
L3:Q62645:68311
     RDKit          3D

 40 42  0  0  0  0  0  0  0  0999 V2000
   16.2451   37.6970   10.2238 C   0  0  0  0  0  0  0  0  0  0  0  0
   15.7299   37.0840    9.0941 C   0  0  0  0  0  0  0  0  0  0  0  0
   15.6248   37.9756    7.9855 C   0  0  0  0  0  0  0  0  0  0  0  0
   16.0590   39.2470    8.2959 C   0  0  0  0  0  0  0  0  0  0  0  0
   16.5791   39.3547    9.9206 S   0  0  0  0  0  0  0  0  0  0  0  0
   16.1078   40.4334    7.4350 C   0  0  0  0  0  0  0  0  0  0  0  0
   15.8293   41.6804    8.0195 C   0  0  0  0  0  0  0  0  0  0  0  0
   15.8340   42.8400    7.2521 C   0  0  0  0  0  0  0  0  0  0  0  0
   16.1132   42.7666    5.8899 C   0  0  0  0  0  0  0  0  0  0  0  0
   16.3948   41.5369    5.2750 C   0  0  0  0  0  0  0  0  0  0  0  0
   16.6753   41.4855    3.8992 C   0  0  0  0  0  0  0  0  0  0  0  0
   16.9626   40.2760    3.2685 C   0  0  0  0  0  0  0  0  0  0  0  0
   16.9758   39.1000    4.0061 C   0  0  0  0  0  0  0  0  0  0  0  0
   16.6985   39.1339    5.3744 C   0  0  0  0  0  0  0  0  0  0  0  0
   16.3980   40.3451    6.0440 C   0  0  0  0  0  0  0  0  0  0  0  0
   15.6491   37.5867   12.5420 N   0  0  0  0  0  0  0  0  0  0  0  0
   16.5133   37.1552   11.5508 C   0  0  0  0  0  0  0  0  0  0  0  0
   17.4096   36.3539   11.8056 O   0  0  0  0  0  0  0  0  0  0  0  0
   14.7741   38.0096   12.2566 H   0  0  0  0  0  0  0  0  0  0  0  0
   15.6910   37.0257   13.8841 C   0  0  0  0  0  0  0  0  0  0  0  0
   14.0089   38.3722   15.1340 N   0  0  0  0  0  0  0  0  0  0  0  0
   14.3250   37.0219   14.5962 C   0  0  1  0  0  0  0  0  0  0  0  0
   13.0620   38.3240   15.5217 H   0  0  0  0  0  0  0  0  0  0  0  0
   13.9386   39.0337   14.3611 H   0  0  0  0  0  0  0  0  0  0  0  0
   13.2242   36.5737   13.6231 C   0  0  0  0  0  0  0  0  0  0  0  0
   12.5668   37.2841   12.8775 O   0  0  0  0  0  0  0  0  0  0  0  0
   13.0323   35.2333   13.6222 O   0  0  0  0  0  0  0  0  0  0  0  0
   12.3444   35.0867   12.9390 H   0  0  0  0  0  0  0  0  0  0  0  0
   15.4523   36.0907    9.0581 H   0  0  0  0  0  0  0  0  0  0  0  0
   15.2652   37.7007    7.0580 H   0  0  0  0  0  0  0  0  0  0  0  0
   15.6192   41.7362    9.0283 H   0  0  0  0  0  0  0  0  0  0  0  0
   15.6313   43.7519    7.6907 H   0  0  0  0  0  0  0  0  0  0  0  0
   16.1130   43.6295    5.3239 H   0  0  0  0  0  0  0  0  0  0  0  0
   16.6685   42.3571    3.3467 H   0  0  0  0  0  0  0  0  0  0  0  0
   17.1648   40.2549    2.2567 H   0  0  0  0  0  0  0  0  0  0  0  0
   17.1901   38.2024    3.5441 H   0  0  0  0  0  0  0  0  0  0  0  0
   16.7129   38.2530    5.9118 H   0  0  0  0  0  0  0  0  0  0  0  0
   16.0402   36.0165   13.8177 H   0  0  0  0  0  0  0  0  0  0  0  0
   16.3435   37.6461   14.4623 H   0  0  0  0  0  0  0  0  0  0  0  0
   14.3722   36.3332   15.4137 H   0  0  0  0  0  0  0  0  0  0  0  0
  1  2  2  0
  2  3  1  0
  2 29  1  0
  3  4  2  0
  3 30  1  0
  4  6  1  0
  4  5  1  0
  5  1  1  0
  6  7  2  0
  7  8  1  0
  7 31  1  0
  8  9  2  0
  8 32  1  0
  9 10  1  0
  9 33  1  0
 10 11  2  0
 11 12  1  0
 11 34  1  0
 12 13  2  0
 12 35  1  0
 13 14  1  0
 13 36  1  0
 14 15  2  0
 14 37  1  0
 15  6  1  0
 15 10  1  0
 16 17  1  0
 16 19  1  0
 17 18  2  0
 17  1  1  0
 20 16  1  0
 20 38  1  0
 20 39  1  0
 21 22  1  0
 21 23  1  0
 21 24  1  0
 22 20  1  0
 22 25  1  0
 22 40  1  1
 25 26  2  0
 25 27  1  0
 27 28  1  0
M  END
>  <minimizedAffinity>  (6) 
-5.59919

>  <mol_id>  (6) 
68311

>  <source_index>  (6) 
5

>  <layer>  (6) 
L3

>  <uniprot>  (6) 
Q62645

>  <paff>  (6) 
6.5186000000000002

>  <smiles>  (6) 
N[C@H](CNC(=O)c1ccc(-c2cccc3ccccc23)s1)C(=O)O

$$$$
L3:Q62645:69000
     RDKit          3D

 34 35  0  0  0  0  0  0  0  0999 V2000
   15.4273   36.9476   12.7763 N   0  0  0  0  0  0  0  0  0  0  0  0
   16.4947   37.3370   11.9914 C   0  0  0  0  0  0  0  0  0  0  0  0
   17.6249   37.4214   12.4689 O   0  0  0  0  0  0  0  0  0  0  0  0
   14.5748   36.6298   12.3298 H   0  0  0  0  0  0  0  0  0  0  0  0
   16.1631   37.6098   10.5983 C   0  0  0  0  0  0  0  0  0  0  0  0
   15.3646   36.9033    9.7157 C   0  0  0  0  0  0  0  0  0  0  0  0
   15.2984   37.5132    8.4277 C   0  0  0  0  0  0  0  0  0  0  0  0
   16.0532   38.6662    8.3520 C   0  0  0  0  0  0  0  0  0  0  0  0
   16.8053   39.0143    9.8493 S   0  0  0  0  0  0  0  0  0  0  0  0
   16.2222   39.5738    7.2168 C   0  0  0  0  0  0  0  0  0  0  0  0
   16.5772   39.0597    5.9604 C   0  0  0  0  0  0  0  0  0  0  0  0
   16.7501   39.9123    4.8654 C   0  0  0  0  0  0  0  0  0  0  0  0
   16.5761   41.2880    5.0142 C   0  0  0  0  0  0  0  0  0  0  0  0
   16.2317   41.8121    6.2586 C   0  0  0  0  0  0  0  0  0  0  0  0
   16.0594   40.9586    7.3472 C   0  0  0  0  0  0  0  0  0  0  0  0
   15.7530   41.5025    8.5352 F   0  0  0  0  0  0  0  0  0  0  0  0
   15.6233   36.4739   14.1368 C   0  0  0  0  0  0  0  0  0  0  0  0
   13.8869   37.3373   15.6954 N   0  0  0  0  0  0  0  0  0  0  0  0
   14.2808   36.1883   14.8206 C   0  0  1  0  0  0  0  0  0  0  0  0
   12.9679   37.1179   16.0905 H   0  0  0  0  0  0  0  0  0  0  0  0
   13.6973   38.1381   15.0847 H   0  0  0  0  0  0  0  0  0  0  0  0
   13.2054   35.9241   13.7697 C   0  0  0  0  0  0  0  0  0  0  0  0
   12.3408   36.7101   13.4119 O   0  0  0  0  0  0  0  0  0  0  0  0
   13.2537   34.6807   13.2568 O   0  0  0  0  0  0  0  0  0  0  0  0
   12.5089   34.6446   12.6190 H   0  0  0  0  0  0  0  0  0  0  0  0
   14.8712   36.0310    9.9623 H   0  0  0  0  0  0  0  0  0  0  0  0
   14.7480   37.1348    7.6410 H   0  0  0  0  0  0  0  0  0  0  0  0
   16.7119   38.0433    5.8433 H   0  0  0  0  0  0  0  0  0  0  0  0
   17.0071   39.5225    3.9450 H   0  0  0  0  0  0  0  0  0  0  0  0
   16.7020   41.9161    4.2051 H   0  0  0  0  0  0  0  0  0  0  0  0
   16.1045   42.8297    6.3740 H   0  0  0  0  0  0  0  0  0  0  0  0
   16.2021   35.5742   14.1136 H   0  0  0  0  0  0  0  0  0  0  0  0
   16.1323   37.2343   14.6915 H   0  0  0  0  0  0  0  0  0  0  0  0
   14.3835   35.3175   15.4339 H   0  0  0  0  0  0  0  0  0  0  0  0
  1  2  1  0
  1  4  1  0
  2  3  2  0
  2  5  1  0
  5  6  2  0
  6  7  1  0
  6 26  1  0
  7  8  2  0
  7 27  1  0
  8 10  1  0
  8  9  1  0
  9  5  1  0
 10 11  2  0
 11 12  1  0
 11 28  1  0
 12 13  2  0
 12 29  1  0
 13 14  1  0
 13 30  1  0
 14 15  2  0
 14 31  1  0
 15 16  1  0
 15 10  1  0
 17  1  1  0
 17 32  1  0
 17 33  1  0
 18 19  1  0
 18 20  1  0
 18 21  1  0
 19 17  1  0
 19 22  1  0
 19 34  1  1
 22 23  2  0
 22 24  1  0
 24 25  1  0
M  END
>  <minimizedAffinity>  (7) 
-5.03722

>  <mol_id>  (7) 
69000

>  <source_index>  (7) 
6

>  <layer>  (7) 
L3

>  <uniprot>  (7) 
Q62645

>  <paff>  (7) 
6.0087999999999999

>  <smiles>  (7) 
N[C@H](CNC(=O)c1ccc(-c2ccccc2F)s1)C(=O)O

$$$$
L3:Q62645:103070
     RDKit          3D

 37 38  0  0  0  0  0  0  0  0999 V2000
    4.3595   39.8515   12.6244 C   0  0  0  0  0  0  0  0  0  0  0  0
    4.0661   41.1432   12.2232 C   0  0  0  0  0  0  0  0  0  0  0  0
    2.6860   41.3197   11.9080 C   0  0  0  0  0  0  0  0  0  0  0  0
    1.9587   40.1601   12.0753 C   0  0  0  0  0  0  0  0  0  0  0  0
    2.9470   38.8767   12.6270 S   0  0  0  0  0  0  0  0  0  0  0  0
    0.5293   39.9291   11.8528 C   0  0  0  0  0  0  0  0  0  0  0  0
    0.1312   39.2679   10.6770 C   0  0  0  0  0  0  0  0  0  0  0  0
   -1.2148   39.0077   10.4198 C   0  0  0  0  0  0  0  0  0  0  0  0
   -2.1833   39.4012   11.3358 C   0  0  0  0  0  0  0  0  0  0  0  0
   -1.8054   40.0562   12.5080 C   0  0  0  0  0  0  0  0  0  0  0  0
   -0.4504   40.3319   12.7831 C   0  0  0  0  0  0  0  0  0  0  0  0
   -0.0868   41.0424   14.0647 C   0  0  0  0  0  0  0  0  0  0  0  0
   -1.1502   41.2021   14.9080 F   0  0  0  0  0  0  0  0  0  0  0  0
    0.8462   40.3677   14.7950 F   0  0  0  0  0  0  0  0  0  0  0  0
    0.4080   42.2961   13.8752 F   0  0  0  0  0  0  0  0  0  0  0  0
    6.5864   39.1988   12.0291 N   0  0  0  0  0  0  0  0  0  0  0  0
    5.6287   39.2593   13.0288 C   0  0  0  0  0  0  0  0  0  0  0  0
    5.8634   38.8199   14.1532 O   0  0  0  0  0  0  0  0  0  0  0  0
    6.2430   39.2148   11.0781 H   0  0  0  0  0  0  0  0  0  0  0  0
    7.8102   38.4349   12.2318 C   0  0  0  0  0  0  0  0  0  0  0  0
   10.0894   38.2963   11.2388 N   0  0  0  0  0  0  0  0  0  0  0  0
    8.6249   38.3137   10.9342 C   0  0  1  0  0  0  0  0  0  0  0  0
   10.5689   38.1922   10.3388 H   0  0  0  0  0  0  0  0  0  0  0  0
   10.3036   37.4297   11.7342 H   0  0  0  0  0  0  0  0  0  0  0  0
    8.2098   37.0524   10.1744 C   0  0  0  0  0  0  0  0  0  0  0  0
    7.6364   36.0751   10.6250 O   0  0  0  0  0  0  0  0  0  0  0  0
    8.5246   37.1034    8.8584 O   0  0  0  0  0  0  0  0  0  0  0  0
    8.1670   36.2639    8.4981 H   0  0  0  0  0  0  0  0  0  0  0  0
    4.7688   41.8963   12.1591 H   0  0  0  0  0  0  0  0  0  0  0  0
    2.2784   42.2132   11.5910 H   0  0  0  0  0  0  0  0  0  0  0  0
    0.8458   38.9708    9.9942 H   0  0  0  0  0  0  0  0  0  0  0  0
   -1.4910   38.5240    9.5511 H   0  0  0  0  0  0  0  0  0  0  0  0
   -3.1799   39.2092   11.1491 H   0  0  0  0  0  0  0  0  0  0  0  0
   -2.5295   40.3436   13.1849 H   0  0  0  0  0  0  0  0  0  0  0  0
    8.4072   38.9259   12.9717 H   0  0  0  0  0  0  0  0  0  0  0  0
    7.5401   37.4496   12.5498 H   0  0  0  0  0  0  0  0  0  0  0  0
    8.4256   39.1636   10.3155 H   0  0  0  0  0  0  0  0  0  0  0  0
  1  2  2  0
  2  3  1  0
  2 29  1  0
  3  4  2  0
  3 30  1  0
  4  6  1  0
  4  5  1  0
  5  1  1  0
  6  7  2  0
  7  8  1  0
  7 31  1  0
  8  9  2  0
  8 32  1  0
  9 10  1  0
  9 33  1  0
 10 11  2  0
 10 34  1  0
 11 12  1  0
 11  6  1  0
 12 13  1  0
 12 14  1  0
 12 15  1  0
 16 17  1  0
 16 19  1  0
 17 18  2  0
 17  1  1  0
 20 16  1  0
 20 35  1  0
 20 36  1  0
 21 22  1  0
 21 23  1  0
 21 24  1  0
 22 20  1  0
 22 25  1  0
 22 37  1  6
 25 26  2  0
 25 27  1  0
 27 28  1  0
M  END
>  <minimizedAffinity>  (8) 
-6.83331

>  <mol_id>  (8) 
103070

>  <source_index>  (8) 
7

>  <layer>  (8) 
L3

>  <uniprot>  (8) 
Q62645

>  <paff>  (8) 
6.6989999999999998

>  <smiles>  (8) 
N[C@H](CNC(=O)c1ccc(-c2ccccc2C(F)(F)F)s1)C(=O)O

$$$$
L3:Q62645:108874
     RDKit          3D

 37 38  0  0  0  0  0  0  0  0999 V2000
   13.8476   28.7873   12.7363 C   0  0  0  0  0  0  0  0  0  0  0  0
   13.8358   30.2789   12.8266 C   0  0  0  0  0  0  0  0  0  0  0  0
   14.9164   31.1176   12.3883 C   0  0  0  0  0  0  0  0  0  0  0  0
   14.6778   32.4679   12.5777 C   0  0  0  0  0  0  0  0  0  0  0  0
   13.1505   32.7146   13.3126 S   0  0  0  0  0  0  0  0  0  0  0  0
   12.8015   31.0408   13.3452 C   0  0  0  0  0  0  0  0  0  0  0  0
   11.5198   30.6022   13.9043 C   0  0  0  0  0  0  0  0  0  0  0  0
   11.4200   30.4264   15.2946 C   0  0  0  0  0  0  0  0  0  0  0  0
   10.2246   29.9996   15.8769 C   0  0  0  0  0  0  0  0  0  0  0  0
    9.1142   29.7406   15.0772 C   0  0  0  0  0  0  0  0  0  0  0  0
    9.1965   29.9105   13.6957 C   0  0  0  0  0  0  0  0  0  0  0  0
   10.3932   30.3377   13.1082 C   0  0  0  0  0  0  0  0  0  0  0  0
   10.4162   30.5309   11.2148 Br  0  0  0  0  0  0  0  0  0  0  0  0
   15.5062   33.6260   12.2644 C   0  0  0  0  0  0  0  0  0  0  0  0
   16.7147   33.5779   12.0387 O   0  0  0  0  0  0  0  0  0  0  0  0
   14.8378   34.8349   12.2485 N   0  0  0  0  0  0  0  0  0  0  0  0
   13.9190   34.9032   12.6714 H   0  0  0  0  0  0  0  0  0  0  0  0
   15.5558   36.0932   12.1276 C   0  0  0  0  0  0  0  0  0  0  0  0
   14.7850   37.2357   12.8000 C   0  0  1  0  0  0  0  0  0  0  0  0
   15.0926   38.5384   12.1326 N   0  0  0  0  0  0  0  0  0  0  0  0
   14.7096   38.5005   11.1823 H   0  0  0  0  0  0  0  0  0  0  0  0
   14.5286   39.2587   12.5928 H   0  0  0  0  0  0  0  0  0  0  0  0
   13.2854   36.9496   12.7546 C   0  0  0  0  0  0  0  0  0  0  0  0
   12.6261   36.4230   13.6390 O   0  0  0  0  0  0  0  0  0  0  0  0
   12.7083   37.3079   11.5921 O   0  0  0  0  0  0  0  0  0  0  0  0
   11.7647   37.0593   11.6951 H   0  0  0  0  0  0  0  0  0  0  0  0
   14.7673   28.4639   12.2953 H   0  0  0  0  0  0  0  0  0  0  0  0
   13.0277   28.4601   12.1317 H   0  0  0  0  0  0  0  0  0  0  0  0
   13.7562   28.3699   13.7173 H   0  0  0  0  0  0  0  0  0  0  0  0
   15.7862   30.7493   11.9726 H   0  0  0  0  0  0  0  0  0  0  0  0
   12.2397   30.6149   15.8926 H   0  0  0  0  0  0  0  0  0  0  0  0
   10.1640   29.8761   16.8997 H   0  0  0  0  0  0  0  0  0  0  0  0
    8.2312   29.4232   15.5068 H   0  0  0  0  0  0  0  0  0  0  0  0
    8.3724   29.7207   13.1043 H   0  0  0  0  0  0  0  0  0  0  0  0
   15.6866   36.3227   11.0907 H   0  0  0  0  0  0  0  0  0  0  0  0
   16.5040   35.9913   12.6128 H   0  0  0  0  0  0  0  0  0  0  0  0
   15.0910   37.3044   13.8230 H   0  0  0  0  0  0  0  0  0  0  0  0
  1  2  1  0
  1 27  1  0
  1 28  1  0
  1 29  1  0
  2  3  1  0
  3  4  2  0
  3 30  1  0
  4 14  1  0
  4  5  1  0
  5  6  1  0
  6  7  1  0
  6  2  2  0
  7  8  2  0
  8  9  1  0
  8 31  1  0
  9 10  2  0
  9 32  1  0
 10 11  1  0
 10 33  1  0
 11 12  2  0
 11 34  1  0
 12 13  1  0
 12  7  1  0
 14 15  2  0
 14 16  1  0
 16 18  1  0
 16 17  1  0
 18 19  1  0
 18 35  1  0
 18 36  1  0
 19 20  1  0
 19 23  1  0
 19 37  1  1
 20 21  1  0
 20 22  1  0
 23 24  2  0
 23 25  1  0
 25 26  1  0
M  END
>  <minimizedAffinity>  (9) 
-4.40548

>  <mol_id>  (9) 
108874

>  <source_index>  (9) 
8

>  <layer>  (9) 
L3

>  <uniprot>  (9) 
Q62645

>  <paff>  (9) 
6.9207999999999998

>  <smiles>  (9) 
Cc1cc(C(=O)NC[C@@H](N)C(=O)O)sc1-c1ccccc1Br

$$$$
L3:Q62645:134390
     RDKit          3D

 47 49  0  0  0  0  0  0  0  0999 V2000
    1.0369   41.8596   11.8777 C   0  0  0  0  0  0  0  0  0  0  0  0
    0.8209   43.1250   11.3013 C   0  0  0  0  0  0  0  0  0  0  0  0
    1.8876   43.9260   10.8980 C   0  0  0  0  0  0  0  0  0  0  0  0
    3.2073   43.4988   11.0591 C   0  0  0  0  0  0  0  0  0  0  0  0
    3.4163   42.2440   11.6428 C   0  0  0  0  0  0  0  0  0  0  0  0
    4.5912   41.5814   11.9149 N   0  0  0  0  0  0  0  0  0  0  0  0
    4.3502   40.3644   12.5114 C   0  0  0  0  0  0  0  0  0  0  0  0
    2.9733   40.2394   12.5855 C   0  0  0  0  0  0  0  0  0  0  0  0
    2.3716   41.4176   12.0552 C   0  0  0  0  0  0  0  0  0  0  0  0
    5.5068   41.9337   11.6768 H   0  0  0  0  0  0  0  0  0  0  0  0
   -0.6176   39.9842   11.5040 C   0  0  0  0  0  0  0  0  0  0  0  0
   -1.6954   39.2207   11.9917 C   0  0  0  0  0  0  0  0  0  0  0  0
   -2.2294   39.4571   13.2576 C   0  0  0  0  0  0  0  0  0  0  0  0
   -1.6985   40.4630   14.0558 C   0  0  0  0  0  0  0  0  0  0  0  0
   -0.6342   41.2324   13.5855 C   0  0  0  0  0  0  0  0  0  0  0  0
   -0.0777   41.0112   12.3112 C   0  0  0  0  0  0  0  0  0  0  0  0
   -0.9334   38.6176    9.4143 C   0  0  0  0  0  0  0  0  0  0  0  0
   -0.1011   39.6826   10.1135 C   0  0  0  0  0  0  0  0  0  0  0  0
    5.3497   39.4068   12.9281 C   0  0  0  0  0  0  0  0  0  0  0  0
    5.2773   38.7642   13.9710 O   0  0  0  0  0  0  0  0  0  0  0  0
    6.4323   39.2936   12.0798 N   0  0  0  0  0  0  0  0  0  0  0  0
    6.6330   40.0714   11.4635 H   0  0  0  0  0  0  0  0  0  0  0  0
    7.5765   38.4699   12.4429 C   0  0  0  0  0  0  0  0  0  0  0  0
    8.6470   38.3858   11.3391 C   0  0  1  0  0  0  0  0  0  0  0  0
    9.9883   38.1712   11.9366 N   0  0  0  0  0  0  0  0  0  0  0  0
   10.6383   37.9896   11.1666 H   0  0  0  0  0  0  0  0  0  0  0  0
   10.2947   39.0466   12.3622 H   0  0  0  0  0  0  0  0  0  0  0  0
    8.3166   37.2385   10.3774 C   0  0  0  0  0  0  0  0  0  0  0  0
    7.6872   36.2221   10.6336 O   0  0  0  0  0  0  0  0  0  0  0  0
    8.7492   37.4701    9.1149 O   0  0  0  0  0  0  0  0  0  0  0  0
    8.4732   36.6732    8.6161 H   0  0  0  0  0  0  0  0  0  0  0  0
   -0.1449   43.4660   11.1749 H   0  0  0  0  0  0  0  0  0  0  0  0
    1.6996   44.8480   10.4743 H   0  0  0  0  0  0  0  0  0  0  0  0
    4.0001   44.0872   10.7585 H   0  0  0  0  0  0  0  0  0  0  0  0
    2.4649   39.4248   12.9636 H   0  0  0  0  0  0  0  0  0  0  0  0
   -2.0965   38.4742   11.4027 H   0  0  0  0  0  0  0  0  0  0  0  0
   -3.0174   38.8862   13.6012 H   0  0  0  0  0  0  0  0  0  0  0  0
   -2.0905   40.6404   14.9939 H   0  0  0  0  0  0  0  0  0  0  0  0
   -0.2469   41.9788   14.1837 H   0  0  0  0  0  0  0  0  0  0  0  0
   -0.5340   38.4367    8.4382 H   0  0  0  0  0  0  0  0  0  0  0  0
   -1.9452   38.9549    9.3288 H   0  0  0  0  0  0  0  0  0  0  0  0
   -0.9061   37.7124    9.9843 H   0  0  0  0  0  0  0  0  0  0  0  0
   -0.1300   40.5804    9.5321 H   0  0  0  0  0  0  0  0  0  0  0  0
    0.8987   39.3128   10.2055 H   0  0  0  0  0  0  0  0  0  0  0  0
    7.2284   37.4802   12.6533 H   0  0  0  0  0  0  0  0  0  0  0  0
    8.0366   38.9274   13.2937 H   0  0  0  0  0  0  0  0  0  0  0  0
    8.6545   39.3085   10.7974 H   0  0  0  0  0  0  0  0  0  0  0  0
  1  2  2  0
  2  3  1  0
  2 32  1  0
  3  4  2  0
  3 33  1  0
  4  5  1  0
  4 34  1  0
  5  6  1  0
  6  7  1  0
  6 10  1  0
  7 19  1  0
  7  8  2  0
  8  9  1  0
  8 35  1  0
  9  1  1  0
  9  5  2  0
 11 12  2  0
 12 13  1  0
 12 36  1  0
 13 14  2  0
 13 37  1  0
 14 15  1  0
 14 38  1  0
 15 16  2  0
 15 39  1  0
 16  1  1  0
 16 11  1  0
 17 18  1  0
 17 40  1  0
 17 41  1  0
 17 42  1  0
 18 11  1  0
 18 43  1  0
 18 44  1  0
 19 20  2  0
 19 21  1  0
 21 23  1  0
 21 22  1  0
 23 24  1  0
 23 45  1  0
 23 46  1  0
 24 25  1  0
 24 28  1  0
 24 47  1  6
 25 26  1  0
 25 27  1  0
 28 29  2  0
 28 30  1  0
 30 31  1  0
M  END
>  <minimizedAffinity>  (10) 
-7.15414

>  <mol_id>  (10) 
134390

>  <source_index>  (10) 
9

>  <layer>  (10) 
L3

>  <uniprot>  (10) 
Q62645

>  <paff>  (10) 
7.5086000000000004

>  <smiles>  (10) 
CCc1ccccc1-c1cccc2[nH]c(C(=O)NC[C@@H](N)C(=O)O)cc12

$$$$
