L2:O95819:11547
     RDKit          3D

 46 48  0  0  0  0  0  0  0  0999 V2000
  -16.8775   -6.1758   26.3748 C   0  0  0  0  0  0  0  0  0  0  0  0
  -17.0035   -6.4289   27.6979 N   0  0  0  0  0  0  0  0  0  0  0  0
  -17.7433   -7.4954   28.0887 C   0  0  0  0  0  0  0  0  0  0  0  0
  -18.4144   -8.3639   27.2327 C   0  0  0  0  0  0  0  0  0  0  0  0
  -18.2834   -8.0953   25.8737 C   0  0  0  0  0  0  0  0  0  0  0  0
  -17.5288   -6.9942   25.4353 C   0  0  0  0  0  0  0  0  0  0  0  0
  -17.3776   -6.7330   23.9834 C   0  0  0  0  0  0  0  0  0  0  0  0
  -18.1237   -7.4903   23.1217 N   0  0  0  0  0  0  0  0  0  0  0  0
  -16.6243   -5.8600   23.5663 O   0  0  0  0  0  0  0  0  0  0  0  0
  -18.0982   -7.2148   22.1472 H   0  0  0  0  0  0  0  0  0  0  0  0
  -18.9277   -8.0219   23.4276 H   0  0  0  0  0  0  0  0  0  0  0  0
  -16.1533   -5.0421   25.9363 N   0  0  0  0  0  0  0  0  0  0  0  0
  -15.9435   -5.1291   24.9380 H   0  0  0  0  0  0  0  0  0  0  0  0
  -12.9848   -1.2633   25.6508 C   0  0  0  0  0  0  0  0  0  0  0  0
  -13.7231   -2.2728   26.4777 C   0  0  0  0  0  0  0  0  0  0  0  0
  -13.5218   -2.3446   27.8566 C   0  0  0  0  0  0  0  0  0  0  0  0
  -14.2037   -3.2991   28.6006 C   0  0  0  0  0  0  0  0  0  0  0  0
  -14.0253   -3.3436   29.9284 F   0  0  0  0  0  0  0  0  0  0  0  0
  -15.0718   -4.2047   27.9966 C   0  0  0  0  0  0  0  0  0  0  0  0
  -15.2615   -4.1879   26.6136 C   0  0  0  0  0  0  0  0  0  0  0  0
  -14.5892   -3.1976   25.8707 C   0  0  0  0  0  0  0  0  0  0  0  0
  -19.1214   -9.4635   27.7404 N   0  0  0  0  0  0  0  0  0  0  0  0
  -19.8239   -9.8391   27.1103 H   0  0  0  0  0  0  0  0  0  0  0  0
  -19.0727  -10.1186   28.9829 C   0  0  0  0  0  0  0  0  0  0  0  0
  -20.0325   -9.9326   29.9828 C   0  0  0  0  0  0  0  0  0  0  0  0
  -19.9209  -10.5747   31.2222 C   0  0  0  0  0  0  0  0  0  0  0  0
  -18.8422  -11.4205   31.4857 C   0  0  0  0  0  0  0  0  0  0  0  0
  -17.8654  -11.5951   30.5038 C   0  0  0  0  0  0  0  0  0  0  0  0
  -17.9831  -10.9528   29.2658 C   0  0  0  0  0  0  0  0  0  0  0  0
  -18.6540  -12.2351   33.0566 S   0  0  0  0  0  0  0  0  0  0  0  0
  -16.9512  -12.7860   32.9101 C   0  0  0  0  0  0  0  0  0  0  0  0
  -16.1071  -11.7579   32.6545 F   0  0  0  0  0  0  0  0  0  0  0  0
  -16.8177  -13.6714   31.8930 F   0  0  0  0  0  0  0  0  0  0  0  0
  -16.5197  -13.4027   34.0355 F   0  0  0  0  0  0  0  0  0  0  0  0
  -17.8147   -7.6780   29.1019 H   0  0  0  0  0  0  0  0  0  0  0  0
  -18.7436   -8.7089   25.1832 H   0  0  0  0  0  0  0  0  0  0  0  0
  -12.3803   -0.6531   26.2888 H   0  0  0  0  0  0  0  0  0  0  0  0
  -13.6871   -0.6474   25.1290 H   0  0  0  0  0  0  0  0  0  0  0  0
  -12.3601   -1.7690   24.9445 H   0  0  0  0  0  0  0  0  0  0  0  0
  -12.8703   -1.6926   28.3208 H   0  0  0  0  0  0  0  0  0  0  0  0
  -15.5784   -4.8930   28.5751 H   0  0  0  0  0  0  0  0  0  0  0  0
  -14.7373   -3.1501   24.8505 H   0  0  0  0  0  0  0  0  0  0  0  0
  -20.8370   -9.3114   29.8042 H   0  0  0  0  0  0  0  0  0  0  0  0
  -20.6409  -10.4216   31.9455 H   0  0  0  0  0  0  0  0  0  0  0  0
  -17.0517  -12.2013   30.6918 H   0  0  0  0  0  0  0  0  0  0  0  0
  -17.2547  -11.0961   28.5489 H   0  0  0  0  0  0  0  0  0  0  0  0
  1  2  2  0
  2  3  1  0
  3  4  2  0
  3 35  1  0
  4 22  1  0
  4  5  1  0
  5  6  2  0
  5 36  1  0
  6  7  1  0
  6  1  1  0
  7  8  1  0
  7  9  2  0
  8 10  1  0
  8 11  1  0
 12  1  1  0
 12 13  1  0
 14 15  1  0
 14 37  1  0
 14 38  1  0
 14 39  1  0
 15 16  2  0
 16 17  1  0
 16 40  1  0
 17 18  1  0
 17 19  2  0
 19 20  1  0
 19 41  1  0
 20 12  1  0
 20 21  2  0
 21 15  1  0
 21 42  1  0
 22 24  1  0
 22 23  1  0
 24 25  2  0
 25 26  1  0
 25 43  1  0
 26 27  2  0
 26 44  1  0
 27 30  1  0
 27 28  1  0
 28 29  2  0
 28 45  1  0
 29 24  1  0
 29 46  1  0
 30 31  1  0
 31 32  1  0
 31 33  1  0
 31 34  1  0
M  END
>  <minimizedAffinity>  (1) 
-9.51767

>  <mol_id>  (1) 
11547

>  <source_index>  (1) 
0

>  <layer>  (1) 
L2

>  <uniprot>  (1) 
O95819

>  <paff>  (1) 
6.3872

>  <smiles>  (1) 
Cc1cc(F)cc(Nc2ncc(Nc3ccc(SC(F)(F)F)cc3)cc2C(N)=O)c1

$$$$
L2:O95819:16994
     RDKit          3D

 68 72  0  0  0  0  0  0  0  0999 V2000
  -17.0742   -6.8534   27.3137 C   0  0  0  0  0  0  0  0  0  0  0  0
  -16.8535   -6.3307   26.0346 C   0  0  0  0  0  0  0  0  0  0  0  0
  -15.9783   -5.2389   25.8021 C   0  0  0  0  0  0  0  0  0  0  0  0
  -15.2960   -4.6601   26.8985 C   0  0  0  0  0  0  0  0  0  0  0  0
  -14.4470   -3.6236   26.7575 N   0  0  0  0  0  0  0  0  0  0  0  0
  -13.8242   -3.1059   27.8270 C   0  0  0  0  0  0  0  0  0  0  0  0
  -14.0159   -3.5477   29.0742 N   0  0  0  0  0  0  0  0  0  0  0  0
  -14.8572   -4.5850   29.2172 C   0  0  0  0  0  0  0  0  0  0  0  0
  -15.5308   -5.1921   28.1716 C   0  0  0  0  0  0  0  0  0  0  0  0
  -16.4025   -6.2735   28.3841 C   0  0  0  0  0  0  0  0  0  0  0  0
  -18.8186   -9.8617   28.2864 N   0  0  0  0  0  0  0  0  0  0  0  0
  -17.7350   -9.0328   28.3858 C   0  0  0  0  0  0  0  0  0  0  0  0
  -17.9710   -7.9751   27.5312 C   0  0  0  0  0  0  0  0  0  0  0  0
  -19.2212   -8.2861   26.9472 C   0  0  0  0  0  0  0  0  0  0  0  0
  -19.7304   -9.4359   27.3952 N   0  0  0  0  0  0  0  0  0  0  0  0
  -19.0129  -11.1170   28.9802 C   0  0  0  0  0  0  0  0  0  0  0  0
  -19.2639  -11.4515   31.4955 C   0  0  0  0  0  0  0  0  0  0  0  0
  -19.9651  -11.0651   30.1916 C   0  0  0  0  0  0  0  0  0  0  0  0
  -21.2199  -11.9219   29.9945 C   0  0  0  0  0  0  0  0  0  0  0  0
  -20.3943   -9.6991   30.3559 O   0  0  0  0  0  0  0  0  0  0  0  0
  -21.0466   -9.4907   29.6655 H   0  0  0  0  0  0  0  0  0  0  0  0
  -15.7725   -4.6965   24.3781 C   0  0  0  0  0  0  0  0  0  0  0  0
  -16.3148   -5.5948   23.2494 C   0  0  0  0  0  0  0  0  0  0  0  0
  -16.4116   -3.3062   24.2000 C   0  0  0  0  0  0  0  0  0  0  0  0
  -14.3619   -4.6235   24.1380 O   0  0  0  0  0  0  0  0  0  0  0  0
  -14.2158   -3.9841   23.4225 H   0  0  0  0  0  0  0  0  0  0  0  0
  -12.9552   -2.0234   27.7170 N   0  0  0  0  0  0  0  0  0  0  0  0
  -12.1968   -2.1515   28.3711 H   0  0  0  0  0  0  0  0  0  0  0  0
  -12.8126   -1.0009   26.7718 C   0  0  0  0  0  0  0  0  0  0  0  0
  -13.0781   -1.1753   25.3985 C   0  0  0  0  0  0  0  0  0  0  0  0
  -12.9753   -0.1165   24.4901 C   0  0  0  0  0  0  0  0  0  0  0  0
  -12.6160    1.1203   24.9872 C   0  0  0  0  0  0  0  0  0  0  0  0
  -12.3603    1.3336   26.3241 C   0  0  0  0  0  0  0  0  0  0  0  0
  -12.4596    0.2842   27.2288 C   0  0  0  0  0  0  0  0  0  0  0  0
  -12.0095    2.7637   26.5301 C   0  0  0  0  0  0  0  0  0  0  0  0
  -13.0187    3.4940   27.4120 C   0  0  0  0  0  0  0  0  0  0  0  0
  -10.5811    2.9489   27.0352 C   0  0  0  0  0  0  0  0  0  0  0  0
  -12.0939    3.3125   25.1898 O   0  0  0  0  0  0  0  0  0  0  0  0
  -12.4488    2.3723   24.2634 C   0  0  0  0  0  0  0  0  0  0  0  0
  -12.5986    2.5473   23.0713 O   0  0  0  0  0  0  0  0  0  0  0  0
  -17.3448   -6.7545   25.2321 H   0  0  0  0  0  0  0  0  0  0  0  0
  -15.0114   -4.9533   30.1688 H   0  0  0  0  0  0  0  0  0  0  0  0
  -16.5448   -6.6389   29.3387 H   0  0  0  0  0  0  0  0  0  0  0  0
  -16.9044   -9.1711   28.9825 H   0  0  0  0  0  0  0  0  0  0  0  0
  -19.6898   -7.6878   26.2491 H   0  0  0  0  0  0  0  0  0  0  0  0
  -19.4083  -11.8229   28.2800 H   0  0  0  0  0  0  0  0  0  0  0  0
  -18.0545  -11.3881   29.3712 H   0  0  0  0  0  0  0  0  0  0  0  0
  -19.9623  -11.4009   32.3046 H   0  0  0  0  0  0  0  0  0  0  0  0
  -18.4552  -10.7754   31.6795 H   0  0  0  0  0  0  0  0  0  0  0  0
  -18.8839  -12.4484   31.4142 H   0  0  0  0  0  0  0  0  0  0  0  0
  -21.8418  -11.8485   30.8621 H   0  0  0  0  0  0  0  0  0  0  0  0
  -20.9351  -12.9424   29.8451 H   0  0  0  0  0  0  0  0  0  0  0  0
  -21.7591  -11.5731   29.1387 H   0  0  0  0  0  0  0  0  0  0  0  0
  -17.3740   -5.7018   23.3565 H   0  0  0  0  0  0  0  0  0  0  0  0
  -15.8515   -6.5576   23.3061 H   0  0  0  0  0  0  0  0  0  0  0  0
  -16.0954   -5.1487   22.3019 H   0  0  0  0  0  0  0  0  0  0  0  0
  -17.4641   -3.3716   24.3813 H   0  0  0  0  0  0  0  0  0  0  0  0
  -16.2425   -2.9612   23.2014 H   0  0  0  0  0  0  0  0  0  0  0  0
  -15.9721   -2.6201   24.8936 H   0  0  0  0  0  0  0  0  0  0  0  0
  -13.3554   -2.1079   25.0544 H   0  0  0  0  0  0  0  0  0  0  0  0
  -13.1614   -0.2550   23.4845 H   0  0  0  0  0  0  0  0  0  0  0  0
  -12.2756    0.4452   28.2314 H   0  0  0  0  0  0  0  0  0  0  0  0
  -12.9718    3.1028   28.4068 H   0  0  0  0  0  0  0  0  0  0  0  0
  -14.0039    3.3525   27.0191 H   0  0  0  0  0  0  0  0  0  0  0  0
  -12.7879    4.5387   27.4283 H   0  0  0  0  0  0  0  0  0  0  0  0
  -10.4980    2.5497   28.0245 H   0  0  0  0  0  0  0  0  0  0  0  0
  -10.3403    3.9914   27.0499 H   0  0  0  0  0  0  0  0  0  0  0  0
   -9.9036    2.4355   26.3853 H   0  0  0  0  0  0  0  0  0  0  0  0
  1  2  2  0
  2  3  1  0
  2 41  1  0
  3 22  1  0
  3  4  2  0
  4  5  1  0
  5  6  2  0
  6 27  1  0
  6  7  1  0
  7  8  2  0
  8  9  1  0
  8 42  1  0
  9 10  2  0
  9  4  1  0
 10  1  1  0
 10 43  1  0
 11 12  1  0
 12 13  2  0
 12 44  1  0
 13  1  1  0
 13 14  1  0
 14 15  2  0
 14 45  1  0
 15 11  1  0
 16 11  1  0
 16 46  1  0
 16 47  1  0
 17 18  1  0
 17 48  1  0
 17 49  1  0
 17 50  1  0
 18 19  1  0
 18 20  1  0
 18 16  1  0
 19 51  1  0
 19 52  1  0
 19 53  1  0
 20 21  1  0
 22 23  1  0
 22 24  1  0
 22 25  1  0
 23 54  1  0
 23 55  1  0
 23 56  1  0
 24 57  1  0
 24 58  1  0
 24 59  1  0
 25 26  1  0
 27 29  1  0
 27 28  1  0
 29 30  2  0
 30 31  1  0
 30 60  1  0
 31 32  2  0
 31 61  1  0
 32 33  1  0
 33 34  2  0
 33 35  1  0
 34 29  1  0
 34 62  1  0
 35 36  1  0
 35 37  1  0
 35 38  1  0
 36 63  1  0
 36 64  1  0
 36 65  1  0
 37 66  1  0
 37 67  1  0
 37 68  1  0
 38 39  1  0
 39 40  2  0
 39 32  1  0
M  END
>  <minimizedAffinity>  (2) 
-9.25708

>  <mol_id>  (2) 
16994

>  <source_index>  (2) 
1

>  <layer>  (2) 
L2

>  <uniprot>  (2) 
O95819

>  <paff>  (2) 
7

>  <smiles>  (2) 
CC(C)(O)Cn1cc(-c2cc(C(C)(C)O)c3nc(Nc4ccc5c(c4)C(C)(C)OC5=O)ncc3c2)cn1

$$$$
L2:O95819:17170
     RDKit          3D

 45 47  0  0  0  0  0  0  0  0999 V2000
  -13.6070   -2.7798   25.8033 C   0  0  0  0  0  0  0  0  0  0  0  0
  -13.1604   -2.6433   27.0739 N   0  0  0  0  0  0  0  0  0  0  0  0
  -12.7279   -1.4257   27.4836 C   0  0  0  0  0  0  0  0  0  0  0  0
  -12.6985   -0.2787   26.6968 C   0  0  0  0  0  0  0  0  0  0  0  0
  -13.1766   -0.4217   25.3979 C   0  0  0  0  0  0  0  0  0  0  0  0
  -13.6386   -1.6675   24.9424 C   0  0  0  0  0  0  0  0  0  0  0  0
  -14.0961   -1.8192   23.5393 C   0  0  0  0  0  0  0  0  0  0  0  0
  -13.1475   -1.7865   22.5537 N   0  0  0  0  0  0  0  0  0  0  0  0
  -15.2835   -1.9543   23.2651 O   0  0  0  0  0  0  0  0  0  0  0  0
  -12.2057   -1.4558   22.7110 H   0  0  0  0  0  0  0  0  0  0  0  0
  -13.4879   -1.7851   21.5999 H   0  0  0  0  0  0  0  0  0  0  0  0
  -14.1131   -4.0247   25.3596 N   0  0  0  0  0  0  0  0  0  0  0  0
  -13.3710   -4.5538   24.8923 H   0  0  0  0  0  0  0  0  0  0  0  0
  -18.1438   -6.8982   24.6726 C   0  0  0  0  0  0  0  0  0  0  0  0
  -17.0971   -6.3067   25.5690 C   0  0  0  0  0  0  0  0  0  0  0  0
  -17.1126   -6.5558   26.9423 C   0  0  0  0  0  0  0  0  0  0  0  0
  -16.1407   -5.9836   27.7514 C   0  0  0  0  0  0  0  0  0  0  0  0
  -16.1447   -6.2415   29.0664 F   0  0  0  0  0  0  0  0  0  0  0  0
  -15.1614   -5.1488   27.2219 C   0  0  0  0  0  0  0  0  0  0  0  0
  -15.1459   -4.8446   25.8535 C   0  0  0  0  0  0  0  0  0  0  0  0
  -16.1141   -5.4503   25.0402 C   0  0  0  0  0  0  0  0  0  0  0  0
  -12.2592    0.9428   27.2273 N   0  0  0  0  0  0  0  0  0  0  0  0
  -12.4536    1.0685   28.2148 H   0  0  0  0  0  0  0  0  0  0  0  0
  -11.5258    1.9984   26.6486 C   0  0  0  0  0  0  0  0  0  0  0  0
  -10.1287    1.9280   26.5267 C   0  0  0  0  0  0  0  0  0  0  0  0
   -9.3927    2.9827   25.9836 C   0  0  0  0  0  0  0  0  0  0  0  0
  -10.0438    4.1344   25.5596 C   0  0  0  0  0  0  0  0  0  0  0  0
  -11.4288    4.2306   25.6789 C   0  0  0  0  0  0  0  0  0  0  0  0
  -12.1800    3.1760   26.2270 C   0  0  0  0  0  0  0  0  0  0  0  0
  -13.6713    3.3379   26.3505 C   0  0  0  0  0  0  0  0  0  0  0  0
  -12.3939   -1.3430   28.4565 H   0  0  0  0  0  0  0  0  0  0  0  0
  -13.1919    0.3932   24.7648 H   0  0  0  0  0  0  0  0  0  0  0  0
  -18.7984   -7.5178   25.2492 H   0  0  0  0  0  0  0  0  0  0  0  0
  -17.6722   -7.4868   23.9136 H   0  0  0  0  0  0  0  0  0  0  0  0
  -18.7076   -6.1120   24.2154 H   0  0  0  0  0  0  0  0  0  0  0  0
  -17.8410   -7.1607   27.3529 H   0  0  0  0  0  0  0  0  0  0  0  0
  -14.4397   -4.7498   27.8424 H   0  0  0  0  0  0  0  0  0  0  0  0
  -16.1055   -5.2627   24.0254 H   0  0  0  0  0  0  0  0  0  0  0  0
   -9.6358    1.0791   26.8451 H   0  0  0  0  0  0  0  0  0  0  0  0
   -8.3671    2.9070   25.8973 H   0  0  0  0  0  0  0  0  0  0  0  0
   -9.5034    4.9163   25.1575 H   0  0  0  0  0  0  0  0  0  0  0  0
  -11.9093    5.0868   25.3609 H   0  0  0  0  0  0  0  0  0  0  0  0
  -13.9582    4.2979   25.9749 H   0  0  0  0  0  0  0  0  0  0  0  0
  -13.9547    3.2581   27.3792 H   0  0  0  0  0  0  0  0  0  0  0  0
  -14.1612    2.5728   25.7852 H   0  0  0  0  0  0  0  0  0  0  0  0
  1  2  2  0
  2  3  1  0
  3  4  2  0
  3 31  1  0
  4 22  1  0
  4  5  1  0
  5  6  2  0
  5 32  1  0
  6  7  1  0
  6  1  1  0
  7  8  1  0
  7  9  2  0
  8 10  1  0
  8 11  1  0
 12  1  1  0
 12 13  1  0
 14 15  1  0
 14 33  1  0
 14 34  1  0
 14 35  1  0
 15 16  2  0
 16 17  1  0
 16 36  1  0
 17 18  1  0
 17 19  2  0
 19 20  1  0
 19 37  1  0
 20 12  1  0
 20 21  2  0
 21 15  1  0
 21 38  1  0
 22 24  1  0
 22 23  1  0
 24 25  2  0
 25 26  1  0
 25 39  1  0
 26 27  2  0
 26 40  1  0
 27 28  1  0
 27 41  1  0
 28 29  2  0
 28 42  1  0
 29 30  1  0
 29 24  1  0
 30 43  1  0
 30 44  1  0
 30 45  1  0
M  END
>  <minimizedAffinity>  (3) 
-7.36866

>  <mol_id>  (3) 
17170

>  <source_index>  (3) 
2

>  <layer>  (3) 
L2

>  <uniprot>  (3) 
O95819

>  <paff>  (3) 
6.0132000000000003

>  <smiles>  (3) 
Cc1cc(F)cc(Nc2ncc(Nc3ccccc3C)cc2C(N)=O)c1

$$$$
L2:O95819:35616
     RDKit          3D

 51 55  0  0  0  0  0  0  0  0999 V2000
  -16.1567   -5.9278   27.5992 C   0  0  0  0  0  0  0  0  0  0  0  0
  -16.3144   -5.4528   26.2948 C   0  0  0  0  0  0  0  0  0  0  0  0
  -17.1953   -6.1026   25.4310 C   0  0  0  0  0  0  0  0  0  0  0  0
  -17.8912   -7.2183   25.8811 C   0  0  0  0  0  0  0  0  0  0  0  0
  -17.6874   -7.6359   27.1903 C   0  0  0  0  0  0  0  0  0  0  0  0
  -16.8554   -7.0033   28.0526 N   0  0  0  0  0  0  0  0  0  0  0  0
  -13.9755   -3.4344   29.0985 C   0  0  0  0  0  0  0  0  0  0  0  0
  -13.4971   -4.0002   30.2172 N   0  0  0  0  0  0  0  0  0  0  0  0
  -13.8858   -5.2605   30.4775 C   0  0  0  0  0  0  0  0  0  0  0  0
  -14.7437   -5.9730   29.6754 C   0  0  0  0  0  0  0  0  0  0  0  0
  -15.2092   -5.3171   28.5555 C   0  0  0  0  0  0  0  0  0  0  0  0
  -14.8260   -4.0519   28.2726 N   0  0  0  0  0  0  0  0  0  0  0  0
  -13.5241   -2.1390   28.8325 N   0  0  0  0  0  0  0  0  0  0  0  0
  -13.3500   -1.6871   29.7218 H   0  0  0  0  0  0  0  0  0  0  0  0
  -11.7525    0.4468   28.4587 C   0  0  0  0  0  0  0  0  0  0  0  0
  -12.4752   -0.3684   27.4548 C   0  0  0  0  0  0  0  0  0  0  0  0
  -12.4258   -0.0314   26.1587 N   0  0  0  0  0  0  0  0  0  0  0  0
  -13.2086   -0.9661   25.4961 O   0  0  0  0  0  0  0  0  0  0  0  0
  -13.7027   -1.8538   26.3941 C   0  0  0  0  0  0  0  0  0  0  0  0
  -13.2691   -1.5264   27.6552 C   0  0  0  0  0  0  0  0  0  0  0  0
  -18.4017   -8.7901   27.7093 C   0  0  0  0  0  0  0  0  0  0  0  0
  -18.0093   -9.6286   28.7853 C   0  0  0  0  0  0  0  0  0  0  0  0
  -19.0270  -10.5501   28.9005 C   0  0  0  0  0  0  0  0  0  0  0  0
  -19.9757  -10.2739   27.9549 O   0  0  0  0  0  0  0  0  0  0  0  0
  -19.5926   -9.1712   27.2186 N   0  0  0  0  0  0  0  0  0  0  0  0
  -19.2852  -11.7014   29.8110 C   0  0  2  0  0  0  0  0  0  0  0  0
  -19.9594  -12.7032   29.0600 O   0  0  0  0  0  0  0  0  0  0  0  0
  -20.0777  -11.3707   31.0785 C   0  0  0  0  0  0  0  0  0  0  0  0
  -19.0070  -11.0223   32.1031 C   0  0  0  0  0  0  0  0  0  0  0  0
  -17.8908  -11.8563   31.7298 N   0  0  0  0  0  0  0  0  0  0  0  0
  -16.6804  -11.9037   32.5166 C   0  0  0  0  0  0  0  0  0  0  0  0
  -17.9372  -12.1880   30.3811 C   0  0  0  0  0  0  0  0  0  0  0  0
  -17.0654  -12.7654   29.7405 O   0  0  0  0  0  0  0  0  0  0  0  0
  -19.2606  -13.1683   28.5616 H   0  0  0  0  0  0  0  0  0  0  0  0
  -15.7836   -4.6282   25.9734 H   0  0  0  0  0  0  0  0  0  0  0  0
  -17.3292   -5.7586   24.4673 H   0  0  0  0  0  0  0  0  0  0  0  0
  -18.5420   -7.7231   25.2593 H   0  0  0  0  0  0  0  0  0  0  0  0
  -13.5194   -5.7180   31.3269 H   0  0  0  0  0  0  0  0  0  0  0  0
  -15.0231   -6.9413   29.8977 H   0  0  0  0  0  0  0  0  0  0  0  0
  -11.2496    1.2536   27.9678 H   0  0  0  0  0  0  0  0  0  0  0  0
  -11.0355   -0.1648   28.9655 H   0  0  0  0  0  0  0  0  0  0  0  0
  -12.4504    0.8403   29.1679 H   0  0  0  0  0  0  0  0  0  0  0  0
  -14.3123   -2.6542   26.1646 H   0  0  0  0  0  0  0  0  0  0  0  0
  -17.1515   -9.5626   29.3552 H   0  0  0  0  0  0  0  0  0  0  0  0
  -20.6508  -12.2152   31.3997 H   0  0  0  0  0  0  0  0  0  0  0  0
  -20.7789  -10.5763   30.9298 H   0  0  0  0  0  0  0  0  0  0  0  0
  -19.3390  -11.2506   33.0943 H   0  0  0  0  0  0  0  0  0  0  0  0
  -18.7622   -9.9807   32.1086 H   0  0  0  0  0  0  0  0  0  0  0  0
  -16.8962  -11.6056   33.5213 H   0  0  0  0  0  0  0  0  0  0  0  0
  -15.9550  -11.2393   32.0955 H   0  0  0  0  0  0  0  0  0  0  0  0
  -16.2933  -12.9012   32.5158 H   0  0  0  0  0  0  0  0  0  0  0  0
  1  2  2  0
  2  3  1  0
  2 35  1  0
  3  4  2  0
  3 36  1  0
  4  5  1  0
  4 37  1  0
  5 21  1  0
  5  6  2  0
  6  1  1  0
  7  8  2  0
  8  9  1  0
  9 10  2  0
  9 38  1  0
 10 11  1  0
 10 39  1  0
 11  1  1  0
 11 12  2  0
 12  7  1  0
 13  7  1  0
 13 14  1  0
 15 16  1  0
 15 40  1  0
 15 41  1  0
 15 42  1  0
 16 17  2  0
 17 18  1  0
 18 19  1  0
 19 20  2  0
 19 43  1  0
 20 13  1  0
 20 16  1  0
 21 22  1  0
 22 23  2  0
 22 44  1  0
 23 26  1  0
 23 24  1  0
 24 25  1  0
 25 21  2  0
 26 27  1  6
 26 28  1  0
 27 34  1  0
 28 29  1  0
 28 45  1  0
 28 46  1  0
 29 30  1  0
 29 47  1  0
 29 48  1  0
 30 31  1  0
 30 32  1  0
 31 49  1  0
 31 50  1  0
 31 51  1  0
 32 33  2  0
 32 26  1  0
M  END
>  <minimizedAffinity>  (4) 
-9.31504

>  <mol_id>  (4) 
35616

>  <source_index>  (4) 
3

>  <layer>  (4) 
L2

>  <uniprot>  (4) 
O95819

>  <paff>  (4) 
7.3010000000000002

>  <smiles>  (4) 
Cc1nocc1Nc1nccc(-c2cccc(-c3cc([C@]4(O)CCN(C)C4=O)on3)n2)n1

$$$$
L2:O95819:48976
     RDKit          3D

 57 60  0  0  0  0  0  0  0  0999 V2000
  -17.7461   -7.1400   24.4116 C   0  0  0  0  0  0  0  0  0  0  0  0
  -16.9531   -5.9979   24.4885 C   0  0  0  0  0  0  0  0  0  0  0  0
  -16.4368   -5.5934   25.7288 C   0  0  0  0  0  0  0  0  0  0  0  0
  -15.6304   -4.4472   25.8648 C   0  0  0  0  0  0  0  0  0  0  0  0
  -15.1237   -4.0536   27.1163 C   0  0  0  0  0  0  0  0  0  0  0  0
  -15.4399   -4.8390   28.2315 C   0  0  0  0  0  0  0  0  0  0  0  0
  -14.9761   -4.5017   29.4444 F   0  0  0  0  0  0  0  0  0  0  0  0
  -16.2343   -5.9767   28.1216 C   0  0  0  0  0  0  0  0  0  0  0  0
  -16.7370   -6.3595   26.8693 C   0  0  0  0  0  0  0  0  0  0  0  0
  -17.5380   -7.4845   26.6864 C   0  0  0  0  0  0  0  0  0  0  0  0
  -18.0381   -7.8782   25.4938 N   0  0  0  0  0  0  0  0  0  0  0  0
  -14.2793   -2.8582   27.2376 C   0  0  0  0  0  0  0  0  0  0  0  0
  -13.6231   -2.6092   28.4469 C   0  0  0  0  0  0  0  0  0  0  0  0
  -12.8114   -1.5604   28.6904 N   0  0  0  0  0  0  0  0  0  0  0  0
  -12.6533   -0.6809   27.6835 C   0  0  0  0  0  0  0  0  0  0  0  0
  -13.3031   -0.7776   26.4313 C   0  0  0  0  0  0  0  0  0  0  0  0
  -14.0842   -1.9303   26.1886 C   0  0  0  0  0  0  0  0  0  0  0  0
  -14.7381   -2.1380   24.8441 C   0  0  0  0  0  0  0  0  0  0  0  0
  -13.0977    0.1789   25.4003 N   0  0  0  0  0  0  0  0  0  0  0  0
  -12.5022    1.4117   25.9137 C   0  0  0  0  0  0  0  0  0  0  0  0
  -11.3530    1.0683   26.8548 C   0  0  0  0  0  0  0  0  0  0  0  0
  -11.8253    0.3692   28.0088 O   0  0  0  0  0  0  0  0  0  0  0  0
  -13.9531    0.3401   24.8736 H   0  0  0  0  0  0  0  0  0  0  0  0
  -17.6791   -7.1781   21.9526 C   0  0  0  0  0  0  0  0  0  0  0  0
  -16.6703   -6.5340   21.7163 O   0  0  0  0  0  0  0  0  0  0  0  0
  -18.2332   -7.4966   23.1551 N   0  0  0  0  0  0  0  0  0  0  0  0
  -19.0763   -8.0428   23.0907 H   0  0  0  0  0  0  0  0  0  0  0  0
  -18.4742   -7.7174   20.9850 O   0  0  0  0  0  0  0  0  0  0  0  0
  -17.7889   -8.2484   19.8363 C   0  0  0  0  0  0  0  0  0  0  0  0
  -18.5143   -7.8396   18.5563 C   0  0  0  0  0  0  0  0  0  0  0  0
  -18.8438   -6.3440   18.5404 C   0  0  2  0  0  0  0  0  0  0  0  0
  -19.6295   -5.9973   17.2776 C   0  0  0  0  0  0  0  0  0  0  0  0
  -17.7461   -4.2814   19.0275 C   0  0  0  0  0  0  0  0  0  0  0  0
  -17.6078   -5.6227   18.5766 O   0  0  0  0  0  0  0  0  0  0  0  0
  -16.7462   -5.4518   23.6376 H   0  0  0  0  0  0  0  0  0  0  0  0
  -15.4066   -3.8845   25.0292 H   0  0  0  0  0  0  0  0  0  0  0  0
  -16.4530   -6.5375   28.9599 H   0  0  0  0  0  0  0  0  0  0  0  0
  -17.7645   -8.0549   27.5160 H   0  0  0  0  0  0  0  0  0  0  0  0
  -13.7720   -3.2823   29.2149 H   0  0  0  0  0  0  0  0  0  0  0  0
  -14.4711   -1.3346   24.1897 H   0  0  0  0  0  0  0  0  0  0  0  0
  -15.8011   -2.1618   24.9643 H   0  0  0  0  0  0  0  0  0  0  0  0
  -14.4057   -3.0648   24.4252 H   0  0  0  0  0  0  0  0  0  0  0  0
  -13.2433    1.9712   26.4453 H   0  0  0  0  0  0  0  0  0  0  0  0
  -12.1318    1.9955   25.0971 H   0  0  0  0  0  0  0  0  0  0  0  0
  -10.8737    1.9729   27.1659 H   0  0  0  0  0  0  0  0  0  0  0  0
  -10.6633    0.4377   26.3336 H   0  0  0  0  0  0  0  0  0  0  0  0
  -16.7892   -7.8676   19.8134 H   0  0  0  0  0  0  0  0  0  0  0  0
  -17.7707   -9.3162   19.9024 H   0  0  0  0  0  0  0  0  0  0  0  0
  -17.8897   -8.0653   17.7174 H   0  0  0  0  0  0  0  0  0  0  0  0
  -19.4349   -8.3829   18.5085 H   0  0  0  0  0  0  0  0  0  0  0  0
  -19.4460   -6.0818   19.3851 H   0  0  0  0  0  0  0  0  0  0  0  0
  -19.0485   -6.2502   16.4154 H   0  0  0  0  0  0  0  0  0  0  0  0
  -19.8446   -4.9492   17.2679 H   0  0  0  0  0  0  0  0  0  0  0  0
  -20.5459   -6.5496   17.2648 H   0  0  0  0  0  0  0  0  0  0  0  0
  -16.7880   -3.8051   19.0291 H   0  0  0  0  0  0  0  0  0  0  0  0
  -18.1477   -4.2781   20.0193 H   0  0  0  0  0  0  0  0  0  0  0  0
  -18.4067   -3.7516   18.3735 H   0  0  0  0  0  0  0  0  0  0  0  0
  1  2  2  0
  2  3  1  0
  2 35  1  0
  3  4  2  0
  4  5  1  0
  4 36  1  0
  5 12  1  0
  5  6  2  0
  6  7  1  0
  6  8  1  0
  8  9  2  0
  8 37  1  0
  9 10  1  0
  9  3  1  0
 10 11  2  0
 10 38  1  0
 11  1  1  0
 12 13  2  0
 13 14  1  0
 13 39  1  0
 14 15  2  0
 15 16  1  0
 16 17  2  0
 16 19  1  0
 17 18  1  0
 17 12  1  0
 18 40  1  0
 18 41  1  0
 18 42  1  0
 19 20  1  0
 19 23  1  0
 20 21  1  0
 20 43  1  0
 20 44  1  0
 21 22  1  0
 21 45  1  0
 21 46  1  0
 22 15  1  0
 24 25  2  0
 24 26  1  0
 26  1  1  0
 26 27  1  0
 28 24  1  0
 29 28  1  0
 29 47  1  0
 29 48  1  0
 30 29  1  0
 30 49  1  0
 30 50  1  0
 31 32  1  0
 31 30  1  0
 31 51  1  1
 32 52  1  0
 32 53  1  0
 32 54  1  0
 33 34  1  0
 33 55  1  0
 33 56  1  0
 33 57  1  0
 34 31  1  0
M  END
>  <minimizedAffinity>  (5) 
-8.21828

>  <mol_id>  (5) 
48976

>  <source_index>  (5) 
4

>  <layer>  (5) 
L2

>  <uniprot>  (5) 
O95819

>  <paff>  (5) 
8.8239000000000001

>  <smiles>  (5) 
COC(C)CCOC(=O)Nc1cc2cc(-c3cnc4c(c3C)NCCO4)c(F)cc2cn1

$$$$
L2:O95819:51207
     RDKit          3D

 52 56  0  0  0  0  0  0  0  0999 V2000
  -15.3120   -4.6540   26.1992 C   0  0  0  0  0  0  0  0  0  0  0  0
  -16.1115   -5.2897   27.1663 C   0  0  0  0  0  0  0  0  0  0  0  0
  -16.9357   -6.3818   26.8336 C   0  0  0  0  0  0  0  0  0  0  0  0
  -17.7411   -7.0249   27.7859 C   0  0  0  0  0  0  0  0  0  0  0  0
  -18.5438   -8.0956   27.4000 C   0  0  0  0  0  0  0  0  0  0  0  0
  -18.5613   -8.5514   26.1377 N   0  0  0  0  0  0  0  0  0  0  0  0
  -17.7850   -7.9283   25.2236 C   0  0  0  0  0  0  0  0  0  0  0  0
  -16.9550   -6.8460   25.5064 C   0  0  0  0  0  0  0  0  0  0  0  0
  -16.1566   -6.2233   24.5357 C   0  0  0  0  0  0  0  0  0  0  0  0
  -15.3490   -5.1459   24.8887 C   0  0  0  0  0  0  0  0  0  0  0  0
  -14.5967   -4.5759   23.9357 F   0  0  0  0  0  0  0  0  0  0  0  0
  -15.1615   -2.1677   24.5307 C   0  0  0  0  0  0  0  0  0  0  0  0
  -14.3856   -2.3200   25.8165 C   0  0  0  0  0  0  0  0  0  0  0  0
  -14.4551   -3.5182   26.5658 C   0  0  0  0  0  0  0  0  0  0  0  0
  -13.6709   -3.6005   27.7206 C   0  0  0  0  0  0  0  0  0  0  0  0
  -12.8665   -2.6231   28.1863 N   0  0  0  0  0  0  0  0  0  0  0  0
  -12.8281   -1.4868   27.4661 C   0  0  0  0  0  0  0  0  0  0  0  0
  -13.6002   -1.2512   26.3050 C   0  0  0  0  0  0  0  0  0  0  0  0
  -13.5127   -0.0347   25.5774 N   0  0  0  0  0  0  0  0  0  0  0  0
  -12.8712    1.0253   26.3533 C   0  0  0  0  0  0  0  0  0  0  0  0
  -11.6343    0.4701   27.0509 C   0  0  0  0  0  0  0  0  0  0  0  0
  -11.9929   -0.5335   28.0036 O   0  0  0  0  0  0  0  0  0  0  0  0
  -14.4120    0.2375   25.1895 H   0  0  0  0  0  0  0  0  0  0  0  0
  -19.3139   -8.7113   28.3937 N   0  0  0  0  0  0  0  0  0  0  0  0
  -19.0088   -9.8965   29.0217 C   0  0  0  0  0  0  0  0  0  0  0  0
  -18.1058  -10.6755   28.7540 O   0  0  0  0  0  0  0  0  0  0  0  0
  -19.9189  -10.1409   30.0395 N   0  0  0  0  0  0  0  0  0  0  0  0
  -20.2465   -8.3674   28.5449 H   0  0  0  0  0  0  0  0  0  0  0  0
  -20.1980   -9.3130   30.5428 H   0  0  0  0  0  0  0  0  0  0  0  0
  -19.7379  -11.3183   30.8578 C   0  0  0  0  0  0  0  0  0  0  0  0
  -19.0464  -10.9283   32.1237 C   0  0  0  0  0  0  0  0  0  0  0  0
  -18.7005  -11.9630   33.1653 C   0  0  0  0  0  0  0  0  0  0  0  0
  -19.7868  -10.9583   33.4361 C   0  0  0  0  0  0  0  0  0  0  0  0
  -16.0936   -4.9485   28.1401 H   0  0  0  0  0  0  0  0  0  0  0  0
  -17.7386   -6.7060   28.7674 H   0  0  0  0  0  0  0  0  0  0  0  0
  -17.8087   -8.2771   24.2526 H   0  0  0  0  0  0  0  0  0  0  0  0
  -16.1679   -6.5634   23.5614 H   0  0  0  0  0  0  0  0  0  0  0  0
  -15.6914   -3.0741   24.3244 H   0  0  0  0  0  0  0  0  0  0  0  0
  -14.4849   -1.9595   23.7284 H   0  0  0  0  0  0  0  0  0  0  0  0
  -15.8583   -1.3615   24.6279 H   0  0  0  0  0  0  0  0  0  0  0  0
  -13.7108   -4.4795   28.2598 H   0  0  0  0  0  0  0  0  0  0  0  0
  -13.5574    1.3956   27.0860 H   0  0  0  0  0  0  0  0  0  0  0  0
  -12.5833    1.8210   25.6985 H   0  0  0  0  0  0  0  0  0  0  0  0
  -11.1291    1.2672   27.5552 H   0  0  0  0  0  0  0  0  0  0  0  0
  -10.9955    0.0294   26.3143 H   0  0  0  0  0  0  0  0  0  0  0  0
  -19.1432  -12.0343   30.3299 H   0  0  0  0  0  0  0  0  0  0  0  0
  -20.6898  -11.7515   31.0841 H   0  0  0  0  0  0  0  0  0  0  0  0
  -18.4939  -10.1912   31.5793 H   0  0  0  0  0  0  0  0  0  0  0  0
  -17.7714  -11.9015   33.6925 H   0  0  0  0  0  0  0  0  0  0  0  0
  -18.6375  -13.0311   33.1788 H   0  0  0  0  0  0  0  0  0  0  0  0
  -19.6302  -10.1825   34.1562 H   0  0  0  0  0  0  0  0  0  0  0  0
  -20.8162  -11.0166   33.7221 H   0  0  0  0  0  0  0  0  0  0  0  0
  1  2  2  0
  2  3  1  0
  2 34  1  0
  3  4  2  0
  4  5  1  0
  4 35  1  0
  5 24  1  0
  5  6  2  0
  6  7  1  0
  7  8  2  0
  7 36  1  0
  8  9  1  0
  8  3  1  0
  9 10  2  0
  9 37  1  0
 10 11  1  0
 10  1  1  0
 12 13  1  0
 12 38  1  0
 12 39  1  0
 12 40  1  0
 13 14  2  0
 14  1  1  0
 14 15  1  0
 15 16  2  0
 15 41  1  0
 16 17  1  0
 17 18  2  0
 18 19  1  0
 18 13  1  0
 19 20  1  0
 19 23  1  0
 20 21  1  0
 20 42  1  0
 20 43  1  0
 21 22  1  0
 21 44  1  0
 21 45  1  0
 22 17  1  0
 24 25  1  0
 24 28  1  0
 25 26  2  0
 25 27  1  0
 27 30  1  0
 27 29  1  0
 30 31  1  0
 30 46  1  0
 30 47  1  0
 31 32  1  0
 31 48  1  0
 32 33  1  0
 32 49  1  0
 32 50  1  0
 33 31  1  0
 33 51  1  0
 33 52  1  0
M  END
>  <minimizedAffinity>  (6) 
-10.09224

>  <mol_id>  (6) 
51207

>  <source_index>  (6) 
5

>  <layer>  (6) 
L2

>  <uniprot>  (6) 
O95819

>  <paff>  (6) 
9.3010000000000002

>  <smiles>  (6) 
Cc1c(-c2cc3cc(NC(=O)NCC4CC4)ncc3cc2F)cnc2c1NCCO2

$$$$
L2:O95819:84031
     RDKit          3D

 43 45  0  0  0  0  0  0  0  0999 V2000
  -13.5149   -2.2715   26.3188 C   0  0  0  0  0  0  0  0  0  0  0  0
  -13.8478   -2.3680   25.0112 N   0  0  0  0  0  0  0  0  0  0  0  0
  -14.7959   -3.2664   24.6413 C   0  0  0  0  0  0  0  0  0  0  0  0
  -15.4712   -4.1176   25.5073 C   0  0  0  0  0  0  0  0  0  0  0  0
  -15.1091   -4.0290   26.8503 C   0  0  0  0  0  0  0  0  0  0  0  0
  -14.1259   -3.1144   27.2627 C   0  0  0  0  0  0  0  0  0  0  0  0
  -13.7764   -3.0067   28.6984 C   0  0  0  0  0  0  0  0  0  0  0  0
  -12.5278   -3.4207   29.0768 N   0  0  0  0  0  0  0  0  0  0  0  0
  -14.5668   -2.5486   29.5152 O   0  0  0  0  0  0  0  0  0  0  0  0
  -12.2659   -3.2105   30.0329 H   0  0  0  0  0  0  0  0  0  0  0  0
  -11.7740   -3.5138   28.4092 H   0  0  0  0  0  0  0  0  0  0  0  0
  -12.4975   -1.3786   26.7315 N   0  0  0  0  0  0  0  0  0  0  0  0
  -11.8095   -1.8789   27.3019 H   0  0  0  0  0  0  0  0  0  0  0  0
  -13.5729    3.3213   25.4141 C   0  0  0  0  0  0  0  0  0  0  0  0
  -13.0134    2.3337   26.3943 C   0  0  0  0  0  0  0  0  0  0  0  0
  -12.3967    2.7689   27.5683 C   0  0  0  0  0  0  0  0  0  0  0  0
  -11.8447    1.8368   28.4363 C   0  0  0  0  0  0  0  0  0  0  0  0
  -11.2448    2.2575   29.5582 F   0  0  0  0  0  0  0  0  0  0  0  0
  -11.8949    0.4743   28.1583 C   0  0  0  0  0  0  0  0  0  0  0  0
  -12.5210    0.0051   26.9950 C   0  0  0  0  0  0  0  0  0  0  0  0
  -13.0485    0.9562   26.1102 C   0  0  0  0  0  0  0  0  0  0  0  0
  -16.4197   -5.0721   25.1091 N   0  0  0  0  0  0  0  0  0  0  0  0
  -16.5737   -5.1064   24.1063 H   0  0  0  0  0  0  0  0  0  0  0  0
  -17.0451   -6.1116   25.8193 C   0  0  0  0  0  0  0  0  0  0  0  0
  -16.8484   -6.3175   27.1901 C   0  0  0  0  0  0  0  0  0  0  0  0
  -17.4638   -7.3842   27.8561 C   0  0  0  0  0  0  0  0  0  0  0  0
  -18.2853   -8.2690   27.1545 C   0  0  0  0  0  0  0  0  0  0  0  0
  -18.4883   -8.0787   25.7862 C   0  0  0  0  0  0  0  0  0  0  0  0
  -17.8712   -7.0091   25.1273 C   0  0  0  0  0  0  0  0  0  0  0  0
  -18.9172   -9.3619   27.8336 C   0  0  0  0  0  0  0  0  0  0  0  0
  -19.4260  -10.2475   28.3846 N   0  0  0  0  0  0  0  0  0  0  0  0
  -15.0336   -3.3214   23.6386 H   0  0  0  0  0  0  0  0  0  0  0  0
  -15.5661   -4.6391   27.5460 H   0  0  0  0  0  0  0  0  0  0  0  0
  -13.4575    4.3122   25.8010 H   0  0  0  0  0  0  0  0  0  0  0  0
  -14.6117    3.1185   25.2570 H   0  0  0  0  0  0  0  0  0  0  0  0
  -13.0487    3.2378   24.4851 H   0  0  0  0  0  0  0  0  0  0  0  0
  -12.3514    3.7759   27.7894 H   0  0  0  0  0  0  0  0  0  0  0  0
  -11.4671   -0.1973   28.8148 H   0  0  0  0  0  0  0  0  0  0  0  0
  -13.4743    0.6370   25.2260 H   0  0  0  0  0  0  0  0  0  0  0  0
  -16.2399   -5.6725   27.7182 H   0  0  0  0  0  0  0  0  0  0  0  0
  -17.3099   -7.5169   28.8679 H   0  0  0  0  0  0  0  0  0  0  0  0
  -19.0942   -8.7276   25.2600 H   0  0  0  0  0  0  0  0  0  0  0  0
  -18.0267   -6.8787   24.1154 H   0  0  0  0  0  0  0  0  0  0  0  0
  1  2  2  0
  2  3  1  0
  3  4  2  0
  3 32  1  0
  4 22  1  0
  4  5  1  0
  5  6  2  0
  5 33  1  0
  6  7  1  0
  6  1  1  0
  7  8  1  0
  7  9  2  0
  8 10  1  0
  8 11  1  0
 12  1  1  0
 12 13  1  0
 14 15  1  0
 14 34  1  0
 14 35  1  0
 14 36  1  0
 15 16  2  0
 16 17  1  0
 16 37  1  0
 17 18  1  0
 17 19  2  0
 19 20  1  0
 19 38  1  0
 20 12  1  0
 20 21  2  0
 21 15  1  0
 21 39  1  0
 22 24  1  0
 22 23  1  0
 24 25  2  0
 25 26  1  0
 25 40  1  0
 26 27  2  0
 26 41  1  0
 27 30  1  0
 27 28  1  0
 28 29  2  0
 28 42  1  0
 29 24  1  0
 29 43  1  0
 30 31  3  0
M  END
>  <minimizedAffinity>  (7) 
-8.15946

>  <mol_id>  (7) 
84031

>  <source_index>  (7) 
6

>  <layer>  (7) 
L2

>  <uniprot>  (7) 
O95819

>  <paff>  (7) 
6.3564999999999996

>  <smiles>  (7) 
Cc1cc(F)cc(Nc2ncc(Nc3ccc(C#N)cc3)cc2C(N)=O)c1

$$$$
L2:O95819:99264
     RDKit          3D

 63 68  0  0  0  0  0  0  0  0999 V2000
  -17.5390   -7.5683   27.1237 C   0  0  0  0  0  0  0  0  0  0  0  0
  -16.7977   -6.4494   27.4768 C   0  0  0  0  0  0  0  0  0  0  0  0
  -16.2753   -5.6248   26.4693 C   0  0  0  0  0  0  0  0  0  0  0  0
  -15.5206   -4.4743   26.7675 C   0  0  0  0  0  0  0  0  0  0  0  0
  -15.0074   -3.6488   25.7511 C   0  0  0  0  0  0  0  0  0  0  0  0
  -15.2570   -4.0137   24.4223 C   0  0  0  0  0  0  0  0  0  0  0  0
  -14.7811   -3.2627   23.4178 F   0  0  0  0  0  0  0  0  0  0  0  0
  -15.9993   -5.1476   24.1018 C   0  0  0  0  0  0  0  0  0  0  0  0
  -16.5148   -5.9579   25.1242 C   0  0  0  0  0  0  0  0  0  0  0  0
  -17.2692   -7.1033   24.8769 C   0  0  0  0  0  0  0  0  0  0  0  0
  -17.7812   -7.9050   25.8397 N   0  0  0  0  0  0  0  0  0  0  0  0
  -14.2225   -2.4506   26.0820 C   0  0  0  0  0  0  0  0  0  0  0  0
  -13.9609   -1.5085   25.0819 C   0  0  0  0  0  0  0  0  0  0  0  0
  -13.2351   -0.3828   25.2430 N   0  0  0  0  0  0  0  0  0  0  0  0
  -12.7281   -0.1692   26.4715 C   0  0  0  0  0  0  0  0  0  0  0  0
  -12.8750   -1.0585   27.5615 C   0  0  0  0  0  0  0  0  0  0  0  0
  -13.6945   -2.1943   27.3702 C   0  0  0  0  0  0  0  0  0  0  0  0
  -13.9722   -3.1346   28.5186 C   0  0  0  0  0  0  0  0  0  0  0  0
  -12.3240   -0.7788   28.8415 N   0  0  0  0  0  0  0  0  0  0  0  0
  -11.3123    0.2752   28.7843 C   0  0  0  0  0  0  0  0  0  0  0  0
  -11.8170    1.4195   27.9119 C   0  0  0  0  0  0  0  0  0  0  0  0
  -11.9929    0.9914   26.5591 O   0  0  0  0  0  0  0  0  0  0  0  0
  -11.9942   -1.6257   29.2973 H   0  0  0  0  0  0  0  0  0  0  0  0
  -19.1902   -9.2840   27.8540 C   0  0  0  0  0  0  0  0  0  0  0  0
  -19.8607   -9.3853   26.8355 O   0  0  0  0  0  0  0  0  0  0  0  0
  -18.1135   -8.4544   28.0349 N   0  0  0  0  0  0  0  0  0  0  0  0
  -17.6359   -8.4361   28.9228 H   0  0  0  0  0  0  0  0  0  0  0  0
  -20.2149  -11.4993   28.8963 C   0  0  1  0  0  0  0  0  0  0  0  0
  -19.5669  -10.1382   29.0210 C   0  0  1  0  0  0  0  0  0  0  0  0
  -18.7773  -11.3871   29.3627 C   0  0  1  0  0  0  0  0  0  0  0  0
  -18.3782  -11.6382   30.8301 C   0  0  0  0  0  0  0  0  0  0  0  0
  -19.0188  -11.1468   31.9760 C   0  0  0  0  0  0  0  0  0  0  0  0
  -18.4252  -11.5732   33.0954 N   0  0  0  0  0  0  0  0  0  0  0  0
  -17.4183  -12.3510   32.6473 N   0  0  0  0  0  0  0  0  0  0  0  0
  -16.5462  -13.0001   33.5962 C   0  0  0  0  0  0  0  0  0  0  0  0
  -17.3542  -12.4291   31.2854 C   0  0  0  0  0  0  0  0  0  0  0  0
  -22.0916  -13.0874   29.3570 C   0  0  0  0  0  0  0  0  0  0  0  0
  -21.3592  -11.8340   29.8095 C   0  0  0  0  0  0  0  0  0  0  0  0
  -16.6324   -6.2262   28.4707 H   0  0  0  0  0  0  0  0  0  0  0  0
  -15.3399   -4.2313   27.7541 H   0  0  0  0  0  0  0  0  0  0  0  0
  -16.1699   -5.3913   23.1136 H   0  0  0  0  0  0  0  0  0  0  0  0
  -17.4497   -7.3574   23.8931 H   0  0  0  0  0  0  0  0  0  0  0  0
  -14.3548   -1.6890   24.1453 H   0  0  0  0  0  0  0  0  0  0  0  0
  -13.4899   -2.7711   29.4019 H   0  0  0  0  0  0  0  0  0  0  0  0
  -13.5960   -4.1078   28.2817 H   0  0  0  0  0  0  0  0  0  0  0  0
  -15.0275   -3.1912   28.6860 H   0  0  0  0  0  0  0  0  0  0  0  0
  -10.4095   -0.1196   28.3671 H   0  0  0  0  0  0  0  0  0  0  0  0
  -11.1204    0.6386   29.7723 H   0  0  0  0  0  0  0  0  0  0  0  0
  -11.1059    2.2187   27.9367 H   0  0  0  0  0  0  0  0  0  0  0  0
  -12.7619    1.7476   28.2919 H   0  0  0  0  0  0  0  0  0  0  0  0
  -20.6875  -12.0764   28.1292 H   0  0  0  0  0  0  0  0  0  0  0  0
  -19.8376   -9.2327   29.5226 H   0  0  0  0  0  0  0  0  0  0  0  0
  -17.8580  -11.8326   29.0444 H   0  0  0  0  0  0  0  0  0  0  0  0
  -19.8470  -10.5314   31.9578 H   0  0  0  0  0  0  0  0  0  0  0  0
  -16.8492  -12.7465   34.5906 H   0  0  0  0  0  0  0  0  0  0  0  0
  -15.5396  -12.6746   33.4361 H   0  0  0  0  0  0  0  0  0  0  0  0
  -16.6032  -14.0606   33.4655 H   0  0  0  0  0  0  0  0  0  0  0  0
  -16.6797  -12.9678   30.7199 H   0  0  0  0  0  0  0  0  0  0  0  0
  -22.8973  -13.2924   30.0306 H   0  0  0  0  0  0  0  0  0  0  0  0
  -21.4128  -13.9145   29.3507 H   0  0  0  0  0  0  0  0  0  0  0  0
  -22.4801  -12.9373   28.3714 H   0  0  0  0  0  0  0  0  0  0  0  0
  -20.9798  -11.9917   30.7975 H   0  0  0  0  0  0  0  0  0  0  0  0
  -22.0511  -11.0180   29.7902 H   0  0  0  0  0  0  0  0  0  0  0  0
  1  2  2  0
  2  3  1  0
  2 39  1  0
  3  4  2  0
  4  5  1  0
  4 40  1  0
  5 12  1  0
  5  6  2  0
  6  7  1  0
  6  8  1  0
  8  9  2  0
  8 41  1  0
  9 10  1  0
  9  3  1  0
 10 11  2  0
 10 42  1  0
 11  1  1  0
 12 13  2  0
 13 14  1  0
 13 43  1  0
 14 15  2  0
 15 16  1  0
 16 17  2  0
 16 19  1  0
 17 18  1  0
 17 12  1  0
 18 44  1  0
 18 45  1  0
 18 46  1  0
 19 20  1  0
 19 23  1  0
 20 21  1  0
 20 47  1  0
 20 48  1  0
 21 22  1  0
 21 49  1  0
 21 50  1  0
 22 15  1  0
 24 25  2  0
 24 26  1  0
 26  1  1  0
 26 27  1  0
 28 29  1  0
 28 51  1  6
 29 24  1  0
 29 30  1  0
 29 52  1  1
 30 31  1  0
 30 28  1  0
 30 53  1  6
 31 32  1  0
 32 33  2  0
 32 54  1  0
 33 34  1  0
 34 35  1  0
 34 36  1  0
 35 55  1  0
 35 56  1  0
 35 57  1  0
 36 31  2  0
 36 58  1  0
 37 38  1  0
 37 59  1  0
 37 60  1  0
 37 61  1  0
 38 28  1  0
 38 62  1  0
 38 63  1  0
M  END
>  <minimizedAffinity>  (8) 
-10.41614

>  <mol_id>  (8) 
99264

>  <source_index>  (8) 
7

>  <layer>  (8) 
L2

>  <uniprot>  (8) 
O95819

>  <paff>  (8) 
8.0968999999999998

>  <smiles>  (8) 
CC[C@H]1[C@H](C(=O)Nc2cc3cc(-c4cnc5c(c4C)NCCO5)c(F)cc3cn2)[C@H]1c1cnn(C)c1

$$$$
L2:O95819:104627
     RDKit          3D

 42 44  0  0  0  0  0  0  0  0999 V2000
  -14.9211   -2.8762   25.4872 C   0  0  0  0  0  0  0  0  0  0  0  0
  -15.9659   -3.7998   25.1794 C   0  0  0  0  0  0  0  0  0  0  0  0
  -16.0443   -4.8573   26.0664 C   0  0  0  0  0  0  0  0  0  0  0  0
  -14.8500   -4.7126   27.2834 S   0  0  0  0  0  0  0  0  0  0  0  0
  -14.2248   -3.2601   26.6245 C   0  0  0  0  0  0  0  0  0  0  0  0
  -13.6185   -0.3557   23.2588 N   0  0  0  0  0  0  0  0  0  0  0  0
  -13.7087   -1.6276   23.7454 C   0  0  0  0  0  0  0  0  0  0  0  0
  -13.0348   -2.5184   23.2477 O   0  0  0  0  0  0  0  0  0  0  0  0
  -14.5886   -1.7187   24.7875 N   0  0  0  0  0  0  0  0  0  0  0  0
  -13.0572   -0.2984   22.4178 H   0  0  0  0  0  0  0  0  0  0  0  0
  -14.4670    0.1911   23.2344 H   0  0  0  0  0  0  0  0  0  0  0  0
  -14.9923   -0.8540   25.1380 H   0  0  0  0  0  0  0  0  0  0  0  0
  -16.9983   -5.9761   26.0754 C   0  0  0  0  0  0  0  0  0  0  0  0
  -17.7260   -6.2850   24.9127 C   0  0  0  0  0  0  0  0  0  0  0  0
  -18.6342   -7.3488   24.8913 C   0  0  0  0  0  0  0  0  0  0  0  0
  -18.8237   -8.1209   26.0336 C   0  0  0  0  0  0  0  0  0  0  0  0
  -18.1026   -7.8240   27.1832 C   0  0  0  0  0  0  0  0  0  0  0  0
  -18.2801   -8.5703   28.2815 F   0  0  0  0  0  0  0  0  0  0  0  0
  -17.1964   -6.7677   27.2150 C   0  0  0  0  0  0  0  0  0  0  0  0
  -13.1014   -2.5603   27.2417 C   0  0  0  0  0  0  0  0  0  0  0  0
  -11.9435   -2.9699   27.1461 O   0  0  0  0  0  0  0  0  0  0  0  0
  -13.4080   -1.4108   27.9361 N   0  0  0  0  0  0  0  0  0  0  0  0
  -14.3555   -1.0629   27.8711 H   0  0  0  0  0  0  0  0  0  0  0  0
  -12.3965   -0.5259   28.4610 C   0  0  0  0  0  0  0  0  0  0  0  0
  -12.4744    0.8227   27.7949 C   0  0  0  0  0  0  0  0  0  0  0  0
  -12.1378    1.9833   28.5066 C   0  0  0  0  0  0  0  0  0  0  0  0
  -12.1833    3.2327   27.8868 C   0  0  0  0  0  0  0  0  0  0  0  0
  -12.5592    3.3340   26.5489 C   0  0  0  0  0  0  0  0  0  0  0  0
  -12.8870    2.1867   25.8285 C   0  0  0  0  0  0  0  0  0  0  0  0
  -12.8418    0.9357   26.4464 C   0  0  0  0  0  0  0  0  0  0  0  0
  -16.6006   -3.6886   24.3733 H   0  0  0  0  0  0  0  0  0  0  0  0
  -17.5879   -5.7180   24.0616 H   0  0  0  0  0  0  0  0  0  0  0  0
  -19.1625   -7.5606   24.0304 H   0  0  0  0  0  0  0  0  0  0  0  0
  -19.4933   -8.9062   26.0267 H   0  0  0  0  0  0  0  0  0  0  0  0
  -16.6694   -6.5671   28.0793 H   0  0  0  0  0  0  0  0  0  0  0  0
  -11.4308   -0.9508   28.2829 H   0  0  0  0  0  0  0  0  0  0  0  0
  -12.5583   -0.4017   29.5114 H   0  0  0  0  0  0  0  0  0  0  0  0
  -11.8543    1.9128   29.4964 H   0  0  0  0  0  0  0  0  0  0  0  0
  -11.9385    4.0820   28.4195 H   0  0  0  0  0  0  0  0  0  0  0  0
  -12.5949    4.2584   26.0914 H   0  0  0  0  0  0  0  0  0  0  0  0
  -13.1635    2.2621   24.8371 H   0  0  0  0  0  0  0  0  0  0  0  0
  -13.0803    0.0887   25.9073 H   0  0  0  0  0  0  0  0  0  0  0  0
  1  2  1  0
  2  3  2  0
  2 31  1  0
  3 13  1  0
  3  4  1  0
  4  5  1  0
  5 20  1  0
  5  1  2  0
  6  7  1  0
  6 10  1  0
  6 11  1  0
  7  8  2  0
  7  9  1  0
  9  1  1  0
  9 12  1  0
 13 14  2  0
 14 15  1  0
 14 32  1  0
 15 16  2  0
 15 33  1  0
 16 17  1  0
 16 34  1  0
 17 18  1  0
 17 19  2  0
 19 13  1  0
 19 35  1  0
 20 21  2  0
 20 22  1  0
 22 24  1  0
 22 23  1  0
 24 25  1  0
 24 36  1  0
 24 37  1  0
 25 26  2  0
 26 27  1  0
 26 38  1  0
 27 28  2  0
 27 39  1  0
 28 29  1  0
 28 40  1  0
 29 30  2  0
 29 41  1  0
 30 25  1  0
 30 42  1  0
M  END
>  <minimizedAffinity>  (9) 
-8.10815

>  <mol_id>  (9) 
104627

>  <source_index>  (9) 
8

>  <layer>  (9) 
L2

>  <uniprot>  (9) 
O95819

>  <paff>  (9) 
6.0506000000000002

>  <smiles>  (9) 
NC(=O)Nc1cc(-c2cccc(F)c2)sc1C(=O)NCc1ccccc1

$$$$
L2:O95819:140980
     RDKit          3D

 51 55  0  0  0  0  0  0  0  0999 V2000
  -15.2513   -4.5745   26.1183 C   0  0  0  0  0  0  0  0  0  0  0  0
  -16.0534   -5.2143   27.0806 C   0  0  0  0  0  0  0  0  0  0  0  0
  -16.8788   -6.3033   26.7407 C   0  0  0  0  0  0  0  0  0  0  0  0
  -17.6869   -6.9505   27.6881 C   0  0  0  0  0  0  0  0  0  0  0  0
  -18.4904   -8.0179   27.2948 C   0  0  0  0  0  0  0  0  0  0  0  0
  -18.5064   -8.4664   26.0301 N   0  0  0  0  0  0  0  0  0  0  0  0
  -17.7275   -7.8396   25.1207 C   0  0  0  0  0  0  0  0  0  0  0  0
  -16.8965   -6.7601   25.4110 C   0  0  0  0  0  0  0  0  0  0  0  0
  -16.0956   -6.1334   24.4449 C   0  0  0  0  0  0  0  0  0  0  0  0
  -15.2870   -5.0590   24.8051 C   0  0  0  0  0  0  0  0  0  0  0  0
  -14.5325   -4.4849   23.8564 F   0  0  0  0  0  0  0  0  0  0  0  0
  -15.1318   -2.0596   24.4903 C   0  0  0  0  0  0  0  0  0  0  0  0
  -14.3379   -2.2309   25.7626 C   0  0  0  0  0  0  0  0  0  0  0  0
  -14.3934   -3.4419   26.4924 C   0  0  0  0  0  0  0  0  0  0  0  0
  -13.5930   -3.5411   27.6348 C   0  0  0  0  0  0  0  0  0  0  0  0
  -12.7853   -2.5689   28.1056 N   0  0  0  0  0  0  0  0  0  0  0  0
  -12.7603   -1.4205   27.4043 C   0  0  0  0  0  0  0  0  0  0  0  0
  -13.5491   -1.1680   26.2581 C   0  0  0  0  0  0  0  0  0  0  0  0
  -13.4756    0.0609   25.5503 N   0  0  0  0  0  0  0  0  0  0  0  0
  -12.8260    1.1096   26.3346 C   0  0  0  0  0  0  0  0  0  0  0  0
  -11.5780    0.5467   27.0054 C   0  0  0  0  0  0  0  0  0  0  0  0
  -11.9204   -0.4738   27.9460 O   0  0  0  0  0  0  0  0  0  0  0  0
  -14.3811    0.3369   25.1799 H   0  0  0  0  0  0  0  0  0  0  0  0
  -19.2638   -8.6398   28.2834 N   0  0  0  0  0  0  0  0  0  0  0  0
  -18.9365   -9.8096   28.9291 C   0  0  0  0  0  0  0  0  0  0  0  0
  -18.0127  -10.5712   28.6804 O   0  0  0  0  0  0  0  0  0  0  0  0
  -19.8426  -10.0725   29.9463 N   0  0  0  0  0  0  0  0  0  0  0  0
  -20.2044   -8.3093   28.4124 H   0  0  0  0  0  0  0  0  0  0  0  0
  -20.2277   -9.2442   30.3794 H   0  0  0  0  0  0  0  0  0  0  0  0
  -19.6684  -11.2772   30.7951 C   0  0  0  0  0  0  0  0  0  0  0  0
  -19.9880  -11.0762   32.2899 C   0  0  0  0  0  0  0  0  0  0  0  0
  -18.7647  -11.8332   32.6327 N   0  0  0  0  0  0  0  0  0  0  0  0
  -18.2275  -11.5357   31.2835 C   0  0  0  0  0  0  0  0  0  0  0  0
  -18.9348  -12.8302   32.7745 H   0  0  0  0  0  0  0  0  0  0  0  0
  -16.0366   -4.8785   28.0563 H   0  0  0  0  0  0  0  0  0  0  0  0
  -17.6858   -6.6370   28.6713 H   0  0  0  0  0  0  0  0  0  0  0  0
  -17.7499   -8.1832   24.1478 H   0  0  0  0  0  0  0  0  0  0  0  0
  -16.1058   -6.4682   23.4688 H   0  0  0  0  0  0  0  0  0  0  0  0
  -15.6618   -2.9641   24.2761 H   0  0  0  0  0  0  0  0  0  0  0  0
  -14.4669   -1.8359   23.6824 H   0  0  0  0  0  0  0  0  0  0  0  0
  -15.8295   -1.2573   24.6105 H   0  0  0  0  0  0  0  0  0  0  0  0
  -13.6227   -4.4292   28.1596 H   0  0  0  0  0  0  0  0  0  0  0  0
  -13.5028    1.4657   27.0830 H   0  0  0  0  0  0  0  0  0  0  0  0
  -12.5494    1.9168   25.6890 H   0  0  0  0  0  0  0  0  0  0  0  0
  -11.0681    1.3368   27.5159 H   0  0  0  0  0  0  0  0  0  0  0  0
  -10.9482    0.1204   26.2527 H   0  0  0  0  0  0  0  0  0  0  0  0
  -20.2039  -11.9584   30.1673 H   0  0  0  0  0  0  0  0  0  0  0  0
  -20.8969  -11.5402   32.6115 H   0  0  0  0  0  0  0  0  0  0  0  0
  -20.1564  -10.0972   32.6877 H   0  0  0  0  0  0  0  0  0  0  0  0
  -17.7437  -12.3641   30.8095 H   0  0  0  0  0  0  0  0  0  0  0  0
  -17.4607  -10.8021   31.1466 H   0  0  0  0  0  0  0  0  0  0  0  0
  1  2  2  0
  2  3  1  0
  2 35  1  0
  3  4  2  0
  4  5  1  0
  4 36  1  0
  5 24  1  0
  5  6  2  0
  6  7  1  0
  7  8  2  0
  7 37  1  0
  8  9  1  0
  8  3  1  0
  9 10  2  0
  9 38  1  0
 10 11  1  0
 10  1  1  0
 12 13  1  0
 12 39  1  0
 12 40  1  0
 12 41  1  0
 13 14  2  0
 14  1  1  0
 14 15  1  0
 15 16  2  0
 15 42  1  0
 16 17  1  0
 17 18  2  0
 18 19  1  0
 18 13  1  0
 19 20  1  0
 19 23  1  0
 20 21  1  0
 20 43  1  0
 20 44  1  0
 21 22  1  0
 21 45  1  0
 21 46  1  0
 22 17  1  0
 24 25  1  0
 24 28  1  0
 25 26  2  0
 25 27  1  0
 27 30  1  0
 27 29  1  0
 30 31  1  0
 30 47  1  0
 31 32  1  0
 31 48  1  0
 31 49  1  0
 32 33  1  0
 32 34  1  0
 33 30  1  0
 33 50  1  0
 33 51  1  0
M  END
>  <minimizedAffinity>  (10) 
-9.80953

>  <mol_id>  (10) 
140980

>  <source_index>  (10) 
9

>  <layer>  (10) 
L2

>  <uniprot>  (10) 
O95819

>  <paff>  (10) 
9.1191999999999993

>  <smiles>  (10) 
Cc1c(-c2cc3cc(NC(=O)NC4CNC4)ncc3cc2F)cnc2c1NCCO2

$$$$
