L2:P36897:3771
     RDKit          3D

 53 57  0  0  0  0  0  0  0  0999 V2000
    7.1153   16.5785   11.5353 C   0  0  0  0  0  0  0  0  0  0  0  0
    5.7668   16.5247   11.1559 C   0  0  0  0  0  0  0  0  0  0  0  0
    4.9827   17.6910   11.1171 C   0  0  0  0  0  0  0  0  0  0  0  0
    5.4559   18.8741   11.6203 C   0  0  0  0  0  0  0  0  0  0  0  0
    6.7702   18.9235   12.1010 C   0  0  0  0  0  0  0  0  0  0  0  0
    7.4972   19.9165   12.6310 N   0  0  0  0  0  0  0  0  0  0  0  0
    8.6876   19.3469   12.8788 C   0  0  0  0  0  0  0  0  0  0  0  0
    8.7853   18.0569   12.5470 N   0  0  0  0  0  0  0  0  0  0  0  0
    7.5617   17.7869   12.0424 N   0  0  0  0  0  0  0  0  0  0  0  0
    5.2039   15.2221   10.8219 C   0  0  0  0  0  0  0  0  0  0  0  0
    4.5636   14.7849    9.6313 C   0  0  0  0  0  0  0  0  0  0  0  0
    4.5664   13.4381    9.5304 N   0  0  0  0  0  0  0  0  0  0  0  0
    5.0882   13.0361   10.7217 N   0  0  0  0  0  0  0  0  0  0  0  0
    5.4133   14.0608   11.5405 C   0  0  0  0  0  0  0  0  0  0  0  0
    5.8613   13.5561   12.8648 C   0  0  0  0  0  0  0  0  0  0  0  0
    5.5165   12.0562   12.7540 C   0  0  0  0  0  0  0  0  0  0  0  0
    5.5165   11.7496   11.2553 C   0  0  0  0  0  0  0  0  0  0  0  0
    3.8827   15.7028    8.7050 C   0  0  0  0  0  0  0  0  0  0  0  0
    4.6202   16.6247    7.9650 C   0  0  0  0  0  0  0  0  0  0  0  0
    3.9357   17.5791    7.2246 C   0  0  0  0  0  0  0  0  0  0  0  0
    2.5529   17.5762    7.2285 C   0  0  0  0  0  0  0  0  0  0  0  0
    1.8912   16.6219    8.0036 C   0  0  0  0  0  0  0  0  0  0  0  0
    0.4068   16.6344    8.1419 C   0  0  0  0  0  0  0  0  0  0  0  0
    2.5444   15.6793    8.6918 N   0  0  0  0  0  0  0  0  0  0  0  0
    9.1727   15.1618   11.8903 C   0  0  0  0  0  0  0  0  0  0  0  0
    7.9718   15.4684   11.3331 C   0  0  0  0  0  0  0  0  0  0  0  0
    9.6825   13.8155   11.6862 C   0  0  0  0  0  0  0  0  0  0  0  0
    9.2387   13.0552   10.8139 O   0  0  0  0  0  0  0  0  0  0  0  0
   10.6752   13.3190   12.4677 O   0  0  0  0  0  0  0  0  0  0  0  0
   12.3296   14.8973   13.3564 C   0  0  0  0  0  0  0  0  0  0  0  0
   11.1328   14.0298   13.6376 C   0  0  0  0  0  0  0  0  0  0  0  0
    4.0025   17.6354   10.6743 H   0  0  0  0  0  0  0  0  0  0  0  0
    4.8611   19.7757   11.6283 H   0  0  0  0  0  0  0  0  0  0  0  0
    9.5180   19.8776   13.3073 H   0  0  0  0  0  0  0  0  0  0  0  0
    5.3668   14.0545   13.6944 H   0  0  0  0  0  0  0  0  0  0  0  0
    6.9308   13.7181   13.0007 H   0  0  0  0  0  0  0  0  0  0  0  0
    4.5202   11.8710   13.1462 H   0  0  0  0  0  0  0  0  0  0  0  0
    6.1922   11.4124   13.3063 H   0  0  0  0  0  0  0  0  0  0  0  0
    4.8658   10.9332   10.9648 H   0  0  0  0  0  0  0  0  0  0  0  0
    6.5322   11.5408   10.9164 H   0  0  0  0  0  0  0  0  0  0  0  0
    5.6995   16.6073    7.9829 H   0  0  0  0  0  0  0  0  0  0  0  0
    4.4719   18.3316    6.6620 H   0  0  0  0  0  0  0  0  0  0  0  0
    1.9937   18.3103    6.6674 H   0  0  0  0  0  0  0  0  0  0  0  0
   -0.0697   17.2110    7.3557 H   0  0  0  0  0  0  0  0  0  0  0  0
    0.1290   17.0786    9.0942 H   0  0  0  0  0  0  0  0  0  0  0  0
    0.0160   15.6237    8.1301 H   0  0  0  0  0  0  0  0  0  0  0  0
    9.7274   15.8947   12.4543 H   0  0  0  0  0  0  0  0  0  0  0  0
    7.5812   14.7282   10.6606 H   0  0  0  0  0  0  0  0  0  0  0  0
   12.6559   15.3853   14.2773 H   0  0  0  0  0  0  0  0  0  0  0  0
   12.1081   15.6639   12.6203 H   0  0  0  0  0  0  0  0  0  0  0  0
   13.1555   14.2989   12.9740 H   0  0  0  0  0  0  0  0  0  0  0  0
   10.3134   14.6043   14.0637 H   0  0  0  0  0  0  0  0  0  0  0  0
   11.3800   13.2372   14.3433 H   0  0  0  0  0  0  0  0  0  0  0  0
  1  2  2  0
  2 10  1  0
  2  3  1  0
  3  4  2  0
  3 32  1  0
  4  5  1  0
  4 33  1  0
  5  6  2  0
  6  7  1  0
  7  8  2  0
  7 34  1  0
  8  9  1  0
  9  1  1  0
  9  5  1  0
 10 11  1  0
 11 18  1  0
 11 12  2  0
 12 13  1  0
 13 14  1  0
 14 15  1  0
 14 10  2  0
 15 16  1  0
 15 35  1  0
 15 36  1  0
 16 17  1  0
 16 37  1  0
 16 38  1  0
 17 13  1  0
 17 39  1  0
 17 40  1  0
 18 19  2  0
 19 20  1  0
 19 41  1  0
 20 21  2  0
 20 42  1  0
 21 22  1  0
 21 43  1  0
 22 23  1  0
 22 24  2  0
 23 44  1  0
 23 45  1  0
 23 46  1  0
 24 18  1  0
 25 26  2  0
 25 47  1  0
 26  1  1  0
 26 48  1  0
 27 28  2  0
 27 25  1  0
 29 27  1  0
 30 31  1  0
 30 49  1  0
 30 50  1  0
 30 51  1  0
 31 29  1  0
 31 52  1  0
 31 53  1  0
M  END
>  <minimizedAffinity>  (1) 
-10.77962

>  <mol_id>  (1) 
3771

>  <source_index>  (1) 
0

>  <layer>  (1) 
L2

>  <uniprot>  (1) 
P36897

>  <paff>  (1) 
6.4894999999999996

>  <smiles>  (1) 
CCOC(=O)/C=C/c1c(-c2c(-c3cccc(C)n3)nn3c2CCC3)ccc2ncnn12

>  <aimnet_interaction_kcal_mol>  (1) 
-80.413612915911798

$$$$
L2:P36897:32660
     RDKit          3D

 53 57  0  0  0  0  0  0  0  0999 V2000
    5.6928   13.9771   11.8056 N   0  0  0  0  0  0  0  0  0  0  0  0
    4.8634   14.2049   10.7561 C   0  0  0  0  0  0  0  0  0  0  0  0
    4.8989   15.5657   10.4898 C   0  0  0  0  0  0  0  0  0  0  0  0
    5.8424   16.0683   11.4398 C   0  0  0  0  0  0  0  0  0  0  0  0
    6.2978   15.0991   12.2288 N   0  0  0  0  0  0  0  0  0  0  0  0
    4.2575   16.3223    9.4268 C   0  0  0  0  0  0  0  0  0  0  0  0
    4.9514   17.3181    8.7767 C   0  0  0  0  0  0  0  0  0  0  0  0
    4.4037   17.9195    7.6370 C   0  0  0  0  0  0  0  0  0  0  0  0
    3.1834   17.7002    7.2095 N   0  0  0  0  0  0  0  0  0  0  0  0
    2.4052   16.8845    7.9583 C   0  0  0  0  0  0  0  0  0  0  0  0
    1.0284   16.8392    7.6836 C   0  0  0  0  0  0  0  0  0  0  0  0
    0.2303   15.9271    8.3142 C   0  0  0  0  0  0  0  0  0  0  0  0
    0.7860   15.0004    9.2093 C   0  0  0  0  0  0  0  0  0  0  0  0
    2.0993   15.0882    9.5621 C   0  0  0  0  0  0  0  0  0  0  0  0
    2.9293   16.0670    8.9982 C   0  0  0  0  0  0  0  0  0  0  0  0
    6.3561   17.4321   11.6172 C   0  0  0  0  0  0  0  0  0  0  0  0
    5.4981   18.5188   11.7605 C   0  0  0  0  0  0  0  0  0  0  0  0
    6.0342   19.7568   12.0812 C   0  0  0  0  0  0  0  0  0  0  0  0
    7.4156   19.8764   12.1683 C   0  0  0  0  0  0  0  0  0  0  0  0
    8.1867   18.7381   12.0034 C   0  0  0  0  0  0  0  0  0  0  0  0
    7.6855   17.5396   11.7124 N   0  0  0  0  0  0  0  0  0  0  0  0
    6.1644   12.7392   12.3574 C   0  0  0  0  0  0  0  0  0  0  0  0
    7.9889   12.4202   10.8328 O   0  0  0  0  0  0  0  0  0  0  0  0
    7.6296   12.6011   11.9969 C   0  0  0  0  0  0  0  0  0  0  0  0
    8.4759   12.7410   13.0317 N   0  0  0  0  0  0  0  0  0  0  0  0
    8.1003   12.6207   13.9613 H   0  0  0  0  0  0  0  0  0  0  0  0
    9.8998   12.6261   12.8765 C   0  0  0  0  0  0  0  0  0  0  0  0
   10.4219   11.2220   12.9811 C   0  0  0  0  0  0  0  0  0  0  0  0
    9.6132   10.1139   12.7446 C   0  0  0  0  0  0  0  0  0  0  0  0
   10.1839    8.8675   12.5454 C   0  0  0  0  0  0  0  0  0  0  0  0
   11.5574    8.6885   12.6787 C   0  0  0  0  0  0  0  0  0  0  0  0
   12.3458    9.7615   13.0769 C   0  0  0  0  0  0  0  0  0  0  0  0
   11.7733   11.0118   13.2461 C   0  0  0  0  0  0  0  0  0  0  0  0
    4.3442   13.3913   10.2828 H   0  0  0  0  0  0  0  0  0  0  0  0
    5.9146   17.6337    9.1385 H   0  0  0  0  0  0  0  0  0  0  0  0
    5.0132   18.5992    7.0506 H   0  0  0  0  0  0  0  0  0  0  0  0
    0.6365   17.5464    6.9686 H   0  0  0  0  0  0  0  0  0  0  0  0
   -0.8355   15.9038    8.1367 H   0  0  0  0  0  0  0  0  0  0  0  0
    0.1751   14.2225    9.6200 H   0  0  0  0  0  0  0  0  0  0  0  0
    2.4875   14.4455   10.3394 H   0  0  0  0  0  0  0  0  0  0  0  0
    4.4315   18.4103   11.6259 H   0  0  0  0  0  0  0  0  0  0  0  0
    5.3767   20.6005   12.2342 H   0  0  0  0  0  0  0  0  0  0  0  0
    7.9217   20.8220   12.2992 H   0  0  0  0  0  0  0  0  0  0  0  0
    9.2628   18.7922   12.1181 H   0  0  0  0  0  0  0  0  0  0  0  0
    6.0223   12.7685   13.4323 H   0  0  0  0  0  0  0  0  0  0  0  0
    5.5880   11.9137   11.9473 H   0  0  0  0  0  0  0  0  0  0  0  0
   10.3833   13.2465   13.6254 H   0  0  0  0  0  0  0  0  0  0  0  0
   10.1633   13.0326   11.9013 H   0  0  0  0  0  0  0  0  0  0  0  0
    8.5384   10.2271   12.7188 H   0  0  0  0  0  0  0  0  0  0  0  0
    9.5430    8.0372   12.2733 H   0  0  0  0  0  0  0  0  0  0  0  0
   12.0031    7.7213   12.4738 H   0  0  0  0  0  0  0  0  0  0  0  0
   13.4096    9.6418   13.2242 H   0  0  0  0  0  0  0  0  0  0  0  0
   12.3875   11.8491   13.5525 H   0  0  0  0  0  0  0  0  0  0  0  0
  1  2  1  0
  2  3  2  0
  2 34  1  0
  3  6  1  0
  3  4  1  0
  4 16  1  0
  4  5  2  0
  5  1  1  0
  6  7  2  0
  7  8  1  0
  7 35  1  0
  8  9  2  0
  8 36  1  0
  9 10  1  0
 10 11  2  0
 11 12  1  0
 11 37  1  0
 12 13  2  0
 12 38  1  0
 13 14  1  0
 13 39  1  0
 14 15  2  0
 14 40  1  0
 15  6  1  0
 15 10  1  0
 16 17  2  0
 17 18  1  0
 17 41  1  0
 18 19  2  0
 18 42  1  0
 19 20  1  0
 19 43  1  0
 20 21  2  0
 20 44  1  0
 21 16  1  0
 22  1  1  0
 22 45  1  0
 22 46  1  0
 23 24  2  0
 24 22  1  0
 24 25  1  0
 25 27  1  0
 25 26  1  0
 27 28  1  0
 27 47  1  0
 27 48  1  0
 28 29  2  0
 29 30  1  0
 29 49  1  0
 30 31  2  0
 30 50  1  0
 31 32  1  0
 31 51  1  0
 32 33  2  0
 32 52  1  0
 33 28  1  0
 33 53  1  0
M  END
>  <minimizedAffinity>  (2) 
-11.07051

>  <mol_id>  (2) 
32660

>  <source_index>  (2) 
1

>  <layer>  (2) 
L2

>  <uniprot>  (2) 
P36897

>  <paff>  (2) 
7

>  <smiles>  (2) 
O=C(Cn1cc(-c2ccnc3ccccc23)c(-c2ccccn2)n1)NCc1ccccc1

>  <aimnet_interaction_kcal_mol>  (2) 
-62.994490208876684

$$$$
L2:P36897:43953
     RDKit          3D

 49 53  0  0  0  0  0  0  0  0999 V2000
    5.8651   16.4706   11.1605 C   0  0  0  0  0  0  0  0  0  0  0  0
    5.0272   17.6027   11.1689 C   0  0  0  0  0  0  0  0  0  0  0  0
    5.4681   18.8106   11.6377 C   0  0  0  0  0  0  0  0  0  0  0  0
    6.7908   18.9127   12.0872 C   0  0  0  0  0  0  0  0  0  0  0  0
    7.4854   19.9278   12.6185 N   0  0  0  0  0  0  0  0  0  0  0  0
    8.6984   19.4004   12.8556 C   0  0  0  0  0  0  0  0  0  0  0  0
    8.8415   18.1217   12.5092 N   0  0  0  0  0  0  0  0  0  0  0  0
    7.6245   17.8069   12.0103 N   0  0  0  0  0  0  0  0  0  0  0  0
    7.2166   16.5759   11.5192 C   0  0  0  0  0  0  0  0  0  0  0  0
    4.6370   14.7192    9.6586 C   0  0  0  0  0  0  0  0  0  0  0  0
    4.6241   13.3722    9.5594 N   0  0  0  0  0  0  0  0  0  0  0  0
    5.2160   12.9668   10.7098 N   0  0  0  0  0  0  0  0  0  0  0  0
    5.6033   13.9844   11.5090 C   0  0  0  0  0  0  0  0  0  0  0  0
    5.3527   15.1496   10.8115 C   0  0  0  0  0  0  0  0  0  0  0  0
    6.0585   13.4688   12.8262 C   0  0  0  0  0  0  0  0  0  0  0  0
    5.5777   12.0052   12.7645 C   0  0  0  0  0  0  0  0  0  0  0  0
    5.5072   11.6606   11.2767 C   0  0  0  0  0  0  0  0  0  0  0  0
    0.3975   16.1868    8.0366 C   0  0  0  0  0  0  0  0  0  0  0  0
    1.8776   16.3674    7.9887 C   0  0  0  0  0  0  0  0  0  0  0  0
    2.4713   17.4652    7.3572 C   0  0  0  0  0  0  0  0  0  0  0  0
    3.8296   17.6710    7.5297 C   0  0  0  0  0  0  0  0  0  0  0  0
    4.5611   16.7620    8.2777 C   0  0  0  0  0  0  0  0  0  0  0  0
    3.9069   15.6429    8.7894 C   0  0  0  0  0  0  0  0  0  0  0  0
    2.5969   15.4353    8.6214 N   0  0  0  0  0  0  0  0  0  0  0  0
    8.0993   15.4879   11.3173 C   0  0  0  0  0  0  0  0  0  0  0  0
    9.4040   15.3563   11.6537 C   0  0  0  0  0  0  0  0  0  0  0  0
   10.0935   14.1208   11.3954 C   0  0  0  0  0  0  0  0  0  0  0  0
    9.5707   13.0799   10.8945 O   0  0  0  0  0  0  0  0  0  0  0  0
   11.4099   14.0950   11.7538 N   0  0  0  0  0  0  0  0  0  0  0  0
   12.0733   12.8924   11.4665 O   0  0  0  0  0  0  0  0  0  0  0  0
   11.9679   14.9103   11.5000 H   0  0  0  0  0  0  0  0  0  0  0  0
   11.3322   12.3700   11.1011 H   0  0  0  0  0  0  0  0  0  0  0  0
    4.0278   17.4929   10.7885 H   0  0  0  0  0  0  0  0  0  0  0  0
    4.8371   19.6872   11.6569 H   0  0  0  0  0  0  0  0  0  0  0  0
    9.5112   19.9526   13.2916 H   0  0  0  0  0  0  0  0  0  0  0  0
    5.6349   14.0275   13.6576 H   0  0  0  0  0  0  0  0  0  0  0  0
    7.1440   13.5332   12.9165 H   0  0  0  0  0  0  0  0  0  0  0  0
    4.5796   11.9196   13.1859 H   0  0  0  0  0  0  0  0  0  0  0  0
    6.2077   11.3174   13.3151 H   0  0  0  0  0  0  0  0  0  0  0  0
    4.7611   10.9200   11.0196 H   0  0  0  0  0  0  0  0  0  0  0  0
    6.4758   11.3128   10.9224 H   0  0  0  0  0  0  0  0  0  0  0  0
   -0.1186   16.8924    7.3962 H   0  0  0  0  0  0  0  0  0  0  0  0
    0.0251   16.3282    9.0494 H   0  0  0  0  0  0  0  0  0  0  0  0
    0.1371   15.1734    7.7515 H   0  0  0  0  0  0  0  0  0  0  0  0
    1.8785   18.1535    6.7724 H   0  0  0  0  0  0  0  0  0  0  0  0
    4.3006   18.5510    7.1113 H   0  0  0  0  0  0  0  0  0  0  0  0
    5.5979   16.9408    8.5158 H   0  0  0  0  0  0  0  0  0  0  0  0
    7.6571   14.6421   10.8217 H   0  0  0  0  0  0  0  0  0  0  0  0
    9.9486   16.1814   12.0891 H   0  0  0  0  0  0  0  0  0  0  0  0
  1  2  1  0
  2  3  2  0
  2 33  1  0
  3  4  1  0
  3 34  1  0
  4  5  2  0
  5  6  1  0
  6  7  2  0
  6 35  1  0
  7  8  1  0
  8  9  1  0
  8  4  1  0
  9 25  1  0
  9  1  2  0
 10 11  2  0
 11 12  1  0
 12 13  1  0
 13 14  2  0
 13 15  1  0
 14  1  1  0
 14 10  1  0
 15 16  1  0
 15 36  1  0
 15 37  1  0
 16 17  1  0
 16 38  1  0
 16 39  1  0
 17 12  1  0
 17 40  1  0
 17 41  1  0
 18 19  1  0
 18 42  1  0
 18 43  1  0
 18 44  1  0
 19 20  2  0
 20 21  1  0
 20 45  1  0
 21 22  2  0
 21 46  1  0
 22 23  1  0
 22 47  1  0
 23 10  1  0
 23 24  2  0
 24 19  1  0
 25 26  2  0
 25 48  1  0
 26 27  1  0
 26 49  1  0
 27 28  2  0
 27 29  1  0
 29 30  1  0
 29 31  1  0
 30 32  1  0
M  END
>  <minimizedAffinity>  (3) 
-11.50626

>  <mol_id>  (3) 
43953

>  <source_index>  (3) 
2

>  <layer>  (3) 
L2

>  <uniprot>  (3) 
P36897

>  <paff>  (3) 
7.3872

>  <smiles>  (3) 
Cc1cccc(-c2nn3c(c2-c2ccc4ncnn4c2/C=C/C(=O)NO)CCC3)n1

>  <aimnet_interaction_kcal_mol>  (3) 
-82.317676755996985

$$$$
L2:P36897:50724
     RDKit          3D

 71 76  0  0  0  0  0  0  0  0999 V2000
    5.2331   13.7720   10.4398 C   0  0  0  0  0  0  0  0  0  0  0  0
    4.6335   12.5051   10.5497 C   0  0  0  0  0  0  0  0  0  0  0  0
    5.3934   11.4079   10.9152 C   0  0  0  0  0  0  0  0  0  0  0  0
    6.6982   11.4762   11.1730 N   0  0  0  0  0  0  0  0  0  0  0  0
    7.2662   12.6915   11.0935 C   0  0  0  0  0  0  0  0  0  0  0  0
    6.5877   13.8506   10.7467 C   0  0  0  0  0  0  0  0  0  0  0  0
    8.6708   12.7291   11.4305 C   0  0  0  0  0  0  0  0  0  0  0  0
    9.6267   13.5560   10.9866 N   0  0  0  0  0  0  0  0  0  0  0  0
   10.7266   13.2548   11.7373 C   0  0  0  0  0  0  0  0  0  0  0  0
   10.4953   12.1911   12.5443 C   0  0  0  0  0  0  0  0  0  0  0  0
    9.1924   11.8358   12.3578 N   0  0  0  0  0  0  0  0  0  0  0  0
   11.6473   11.8529   13.3992 C   0  0  0  0  0  0  0  0  0  0  0  0
   12.5597   12.9967   13.1403 N   0  0  0  0  0  0  0  0  0  0  0  0
   13.2742   13.4054   14.2682 C   0  0  0  0  0  0  0  0  0  0  0  0
   13.4109   12.6119   15.2108 O   0  0  0  0  0  0  0  0  0  0  0  0
   13.7649   14.6815   14.3125 N   0  0  0  0  0  0  0  0  0  0  0  0
   14.1751   15.1543   15.6404 C   0  0  0  0  0  0  0  0  0  0  0  0
   14.4847   16.6462   15.6252 C   0  0  0  0  0  0  0  0  0  0  0  0
   13.6910   17.3390   14.6309 N   0  0  0  0  0  0  0  0  0  0  0  0
   13.7929   18.7802   14.7358 C   0  0  0  0  0  0  0  0  0  0  0  0
   14.0359   16.8899   13.2869 C   0  0  0  0  0  0  0  0  0  0  0  0
   14.4258   15.4164   13.2440 C   0  0  0  0  0  0  0  0  0  0  0  0
   12.0498   13.8646   12.0443 C   0  0  0  0  0  0  0  0  0  0  0  0
    8.6153   11.2585   12.9499 H   0  0  0  0  0  0  0  0  0  0  0  0
    4.6790   16.3061   10.0104 C   0  0  0  0  0  0  0  0  0  0  0  0
    3.8057   16.9370    9.2217 N   0  0  0  0  0  0  0  0  0  0  0  0
    3.0117   16.0039    8.7023 N   0  0  0  0  0  0  0  0  0  0  0  0
    3.3328   14.7682    9.1400 C   0  0  0  0  0  0  0  0  0  0  0  0
    4.4616   14.8939    9.9484 C   0  0  0  0  0  0  0  0  0  0  0  0
    8.9728   17.1553   12.0983 C   0  0  0  0  0  0  0  0  0  0  0  0
    7.6028   17.6482   11.7634 C   0  0  0  0  0  0  0  0  0  0  0  0
    7.1681   18.9090   12.1644 C   0  0  0  0  0  0  0  0  0  0  0  0
    5.8656   19.2909   11.8896 C   0  0  0  0  0  0  0  0  0  0  0  0
    5.0431   18.4234   11.1888 C   0  0  0  0  0  0  0  0  0  0  0  0
    5.5503   17.1779   10.8167 C   0  0  0  0  0  0  0  0  0  0  0  0
    6.8006   16.8059   11.1030 N   0  0  0  0  0  0  0  0  0  0  0  0
    1.9810   16.3582    7.7090 C   0  0  0  0  0  0  0  0  0  0  0  0
    0.6126   16.3779    8.3546 C   0  0  0  0  0  0  0  0  0  0  0  0
    2.3206   17.6791    7.0618 C   0  0  0  0  0  0  0  0  0  0  0  0
    3.5646   12.3936   10.4401 H   0  0  0  0  0  0  0  0  0  0  0  0
    4.9411   10.4269   11.0058 H   0  0  0  0  0  0  0  0  0  0  0  0
    7.1030   14.7928   10.7233 H   0  0  0  0  0  0  0  0  0  0  0  0
   12.1390   10.9045   13.1459 H   0  0  0  0  0  0  0  0  0  0  0  0
   11.3965   11.8093   14.4558 H   0  0  0  0  0  0  0  0  0  0  0  0
   15.0422   14.5855   15.9858 H   0  0  0  0  0  0  0  0  0  0  0  0
   13.3676   14.9351   16.3331 H   0  0  0  0  0  0  0  0  0  0  0  0
   15.5656   16.8052   15.4531 H   0  0  0  0  0  0  0  0  0  0  0  0
   14.2604   17.0613   16.6066 H   0  0  0  0  0  0  0  0  0  0  0  0
   13.4760   19.1263   15.7149 H   0  0  0  0  0  0  0  0  0  0  0  0
   13.1552   19.2413   13.9831 H   0  0  0  0  0  0  0  0  0  0  0  0
   14.8207   19.1391   14.5738 H   0  0  0  0  0  0  0  0  0  0  0  0
   14.8762   17.4688   12.8826 H   0  0  0  0  0  0  0  0  0  0  0  0
   13.1836   17.0824   12.6416 H   0  0  0  0  0  0  0  0  0  0  0  0
   15.5100   15.3206   13.3671 H   0  0  0  0  0  0  0  0  0  0  0  0
   14.1938   14.9918   12.2783 H   0  0  0  0  0  0  0  0  0  0  0  0
   12.7306   13.8648   11.1953 H   0  0  0  0  0  0  0  0  0  0  0  0
   11.9328   14.8930   12.3635 H   0  0  0  0  0  0  0  0  0  0  0  0
    2.7364   13.9087    8.8856 H   0  0  0  0  0  0  0  0  0  0  0  0
    9.6769   17.9726   12.2278 H   0  0  0  0  0  0  0  0  0  0  0  0
    9.3561   16.4902   11.3310 H   0  0  0  0  0  0  0  0  0  0  0  0
    8.9533   16.5863   13.0276 H   0  0  0  0  0  0  0  0  0  0  0  0
    7.8466   19.5560   12.7036 H   0  0  0  0  0  0  0  0  0  0  0  0
    5.4951   20.2590   12.2024 H   0  0  0  0  0  0  0  0  0  0  0  0
    4.0470   18.7012   10.8751 H   0  0  0  0  0  0  0  0  0  0  0  0
    2.0090   15.5548    6.9685 H   0  0  0  0  0  0  0  0  0  0  0  0
    0.5757   17.1377    9.1244 H   0  0  0  0  0  0  0  0  0  0  0  0
    0.3599   15.4233    8.8071 H   0  0  0  0  0  0  0  0  0  0  0  0
   -0.1435   16.6105    7.6106 H   0  0  0  0  0  0  0  0  0  0  0  0
    2.5017   18.4232    7.8240 H   0  0  0  0  0  0  0  0  0  0  0  0
    1.4885   18.0086    6.4433 H   0  0  0  0  0  0  0  0  0  0  0  0
    3.1965   17.6370    6.4266 H   0  0  0  0  0  0  0  0  0  0  0  0
  1  2  2  0
  2  3  1  0
  2 40  1  0
  3  4  2  0
  3 41  1  0
  4  5  1  0
  5  7  1  0
  5  6  2  0
  6  1  1  0
  6 42  1  0
  7  8  2  0
  8  9  1  0
  9 10  2  0
 10 11  1  0
 10 12  1  0
 11  7  1  0
 11 24  1  0
 12 13  1  0
 12 43  1  0
 12 44  1  0
 13 14  1  0
 13 23  1  0
 14 15  2  0
 14 16  1  0
 16 17  1  0
 17 18  1  0
 17 45  1  0
 17 46  1  0
 18 19  1  0
 18 47  1  0
 18 48  1  0
 19 20  1  0
 19 21  1  0
 20 49  1  0
 20 50  1  0
 20 51  1  0
 21 22  1  0
 21 52  1  0
 21 53  1  0
 22 16  1  0
 22 54  1  0
 22 55  1  0
 23  9  1  0
 23 56  1  0
 23 57  1  0
 25 26  2  0
 26 27  1  0
 27 37  1  0
 27 28  1  0
 28 29  2  0
 28 58  1  0
 29  1  1  0
 29 25  1  0
 30 31  1  0
 30 59  1  0
 30 60  1  0
 30 61  1  0
 31 32  2  0
 32 33  1  0
 32 62  1  0
 33 34  2  0
 33 63  1  0
 34 35  1  0
 34 64  1  0
 35 25  1  0
 35 36  2  0
 36 31  1  0
 37 38  1  0
 37 39  1  0
 37 65  1  0
 38 66  1  0
 38 67  1  0
 38 68  1  0
 39 69  1  0
 39 70  1  0
 39 71  1  0
M  END
>  <minimizedAffinity>  (4) 
-12.25355

>  <mol_id>  (4) 
50724

>  <source_index>  (4) 
3

>  <layer>  (4) 
L2

>  <uniprot>  (4) 
P36897

>  <paff>  (4) 
8.1249000000000002

>  <smiles>  (4) 
Cc1cccc(-c2nn(C(C)C)cc2-c2ccnc(-c3nc4c([nH]3)CN(C(=O)N3CCN(C)CC3)C4)c2)n1

>  <aimnet_interaction_kcal_mol>  (4) 
-81.649583160450732

$$$$
L2:P36897:77306
     RDKit          3D

 36 39  0  0  0  0  0  0  0  0999 V2000
    6.8825   13.8949   11.1038 N   0  0  0  0  0  0  0  0  0  0  0  0
    7.6844   12.9250   11.6223 N   0  0  0  0  0  0  0  0  0  0  0  0
    6.9616   11.8052   11.6142 C   0  0  0  0  0  0  0  0  0  0  0  0
    7.4201   10.5834   12.3240 C   0  0  0  0  0  0  0  0  0  0  0  0
    5.7283   12.0223   10.9845 C   0  0  0  0  0  0  0  0  0  0  0  0
    5.6952   13.3658   10.6328 C   0  0  0  0  0  0  0  0  0  0  0  0
    4.7285   14.0753    9.8348 C   0  0  0  0  0  0  0  0  0  0  0  0
    4.8771   15.2252    9.1120 C   0  0  0  0  0  0  0  0  0  0  0  0
    3.6723   15.7073    8.5364 C   0  0  0  0  0  0  0  0  0  0  0  0
    3.4166   16.8802    7.8086 C   0  0  0  0  0  0  0  0  0  0  0  0
    2.2214   17.1784    7.3349 N   0  0  0  0  0  0  0  0  0  0  0  0
    1.2062   16.3372    7.5645 C   0  0  0  0  0  0  0  0  0  0  0  0
    1.3354   15.1433    8.2566 C   0  0  0  0  0  0  0  0  0  0  0  0
    2.5835   14.8407    8.7532 C   0  0  0  0  0  0  0  0  0  0  0  0
    3.0805   13.4278    9.7001 S   0  0  0  0  0  0  0  0  0  0  0  0
    5.4487   18.3827   11.5583 C   0  0  0  0  0  0  0  0  0  0  0  0
    6.5867   17.4249   11.5879 C   0  0  0  0  0  0  0  0  0  0  0  0
    7.9043   17.8341   11.7890 C   0  0  0  0  0  0  0  0  0  0  0  0
    8.9137   16.8837   11.7666 C   0  0  0  0  0  0  0  0  0  0  0  0
    8.5858   15.5552   11.5550 C   0  0  0  0  0  0  0  0  0  0  0  0
    7.2456   15.2482   11.3535 C   0  0  0  0  0  0  0  0  0  0  0  0
    6.2685   16.1369   11.3961 N   0  0  0  0  0  0  0  0  0  0  0  0
    8.5053   10.5443   12.3935 H   0  0  0  0  0  0  0  0  0  0  0  0
    7.0230    9.6834   11.8656 H   0  0  0  0  0  0  0  0  0  0  0  0
    7.0519   10.5748   13.3418 H   0  0  0  0  0  0  0  0  0  0  0  0
    4.9313   11.3132   10.8621 H   0  0  0  0  0  0  0  0  0  0  0  0
    5.8142   15.7427    9.0293 H   0  0  0  0  0  0  0  0  0  0  0  0
    4.2074   17.5966    7.6150 H   0  0  0  0  0  0  0  0  0  0  0  0
    0.2397   16.6360    7.1825 H   0  0  0  0  0  0  0  0  0  0  0  0
    0.5132   14.4621    8.3859 H   0  0  0  0  0  0  0  0  0  0  0  0
    5.7401   19.3727   11.8930 H   0  0  0  0  0  0  0  0  0  0  0  0
    4.6417   18.0211   12.1848 H   0  0  0  0  0  0  0  0  0  0  0  0
    5.0425   18.4729   10.5536 H   0  0  0  0  0  0  0  0  0  0  0  0
    8.1293   18.8762   11.9656 H   0  0  0  0  0  0  0  0  0  0  0  0
    9.9468   17.1743   11.8886 H   0  0  0  0  0  0  0  0  0  0  0  0
    9.3218   14.7665   11.5559 H   0  0  0  0  0  0  0  0  0  0  0  0
  1  2  1  0
  2  3  2  0
  3  4  1  0
  3  5  1  0
  4 23  1  0
  4 24  1  0
  4 25  1  0
  5  6  2  0
  5 26  1  0
  6  7  1  0
  6  1  1  0
  7  8  2  0
  8  9  1  0
  8 27  1  0
  9 10  2  0
 10 11  1  0
 10 28  1  0
 11 12  2  0
 12 13  1  0
 12 29  1  0
 13 14  2  0
 13 30  1  0
 14 15  1  0
 14  9  1  0
 15  7  1  0
 16 17  1  0
 16 31  1  0
 16 32  1  0
 16 33  1  0
 17 18  2  0
 18 19  1  0
 18 34  1  0
 19 20  2  0
 19 35  1  0
 20 21  1  0
 20 36  1  0
 21  1  1  0
 21 22  2  0
 22 17  1  0
M  END
>  <minimizedAffinity>  (5) 
-9.93372

>  <mol_id>  (5) 
77306

>  <source_index>  (5) 
4

>  <layer>  (5) 
L2

>  <uniprot>  (5) 
P36897

>  <paff>  (5) 
7.0263999999999998

>  <smiles>  (5) 
Cc1cc(-c2cc3cnccc3s2)n(n1)-c1cccc(C)n1

>  <aimnet_interaction_kcal_mol>  (5) 
-48.130995497170353

$$$$
L2:P36897:93720
     RDKit          3D

 49 52  0  0  0  0  0  0  0  0999 V2000
    5.3052   17.9649   10.7001 C   0  0  0  0  0  0  0  0  0  0  0  0
    5.2143   19.0779   11.6176 C   0  0  0  0  0  0  0  0  0  0  0  0
    6.2865   19.3886   12.3638 C   0  0  0  0  0  0  0  0  0  0  0  0
    7.4149   18.6378   12.2103 N   0  0  0  0  0  0  0  0  0  0  0  0
    8.6104   18.8542   12.8274 N   0  0  0  0  0  0  0  0  0  0  0  0
    9.3047   17.7626   12.5590 C   0  0  0  0  0  0  0  0  0  0  0  0
    8.5977   16.8136   11.7835 C   0  0  0  0  0  0  0  0  0  0  0  0
    7.3747   17.4395   11.4929 C   0  0  0  0  0  0  0  0  0  0  0  0
    6.3403   17.1152   10.7079 N   0  0  0  0  0  0  0  0  0  0  0  0
    9.0027   15.4406   11.6111 C   0  0  0  0  0  0  0  0  0  0  0  0
    8.6122   14.6238   10.6818 N   0  0  0  0  0  0  0  0  0  0  0  0
    9.4345   13.4579   10.7973 O   0  0  0  0  0  0  0  0  0  0  0  0
   10.1995   13.5310   12.0475 C   0  0  0  0  0  0  0  0  0  0  0  0
   11.6820   13.3372   11.7786 C   0  0  0  0  0  0  0  0  0  0  0  0
    9.6406   12.4731   12.9678 C   0  0  0  0  0  0  0  0  0  0  0  0
    9.9274   14.8841   12.5187 N   0  0  0  0  0  0  0  0  0  0  0  0
   10.7682   15.4467   12.5610 H   0  0  0  0  0  0  0  0  0  0  0  0
    4.2913   17.8131    9.8398 N   0  0  0  0  0  0  0  0  0  0  0  0
    3.5576   18.5233    9.8485 H   0  0  0  0  0  0  0  0  0  0  0  0
    4.3346   17.0790    8.5818 C   0  0  2  0  0  0  0  0  0  0  0  0
    4.7007   18.0256    7.4589 C   0  0  0  0  0  0  0  0  0  0  0  0
    2.6054   15.2374    8.7614 C   0  0  0  0  0  0  0  0  0  0  0  0
    1.2666   14.8616    8.7819 C   0  0  0  0  0  0  0  0  0  0  0  0
    0.3014   15.7173    8.2846 C   0  0  0  0  0  0  0  0  0  0  0  0
    0.6920   16.9327    7.7724 C   0  0  0  0  0  0  0  0  0  0  0  0
   -0.2579   17.7762    7.2794 F   0  0  0  0  0  0  0  0  0  0  0  0
    2.0071   17.3265    7.7536 C   0  0  0  0  0  0  0  0  0  0  0  0
    2.9663   16.5152    8.3364 C   0  0  0  0  0  0  0  0  0  0  0  0
    3.2974   13.3090    9.9542 C   0  0  0  0  0  0  0  0  0  0  0  0
    3.6393   14.3773    9.0942 O   0  0  0  0  0  0  0  0  0  0  0  0
    4.3188   19.6682   11.6868 H   0  0  0  0  0  0  0  0  0  0  0  0
    6.2952   20.1500   13.1231 H   0  0  0  0  0  0  0  0  0  0  0  0
   10.3224   17.6968   12.9059 H   0  0  0  0  0  0  0  0  0  0  0  0
   11.8846   12.3813   11.2991 H   0  0  0  0  0  0  0  0  0  0  0  0
   12.2213   13.3585   12.7276 H   0  0  0  0  0  0  0  0  0  0  0  0
   12.0627   14.1357   11.1487 H   0  0  0  0  0  0  0  0  0  0  0  0
    9.7858   11.4849   12.5302 H   0  0  0  0  0  0  0  0  0  0  0  0
    8.5814   12.6216   13.1517 H   0  0  0  0  0  0  0  0  0  0  0  0
   10.1495   12.4977   13.9291 H   0  0  0  0  0  0  0  0  0  0  0  0
    5.0690   16.2888    8.6813 H   0  0  0  0  0  0  0  0  0  0  0  0
    4.1413   18.9513    7.5404 H   0  0  0  0  0  0  0  0  0  0  0  0
    4.4645   17.5929    6.4948 H   0  0  0  0  0  0  0  0  0  0  0  0
    5.7541   18.2700    7.4836 H   0  0  0  0  0  0  0  0  0  0  0  0
    0.9659   13.8897    9.1319 H   0  0  0  0  0  0  0  0  0  0  0  0
   -0.7355   15.4338    8.2670 H   0  0  0  0  0  0  0  0  0  0  0  0
    2.2718   18.2788    7.3256 H   0  0  0  0  0  0  0  0  0  0  0  0
    2.7889   13.6928   10.8352 H   0  0  0  0  0  0  0  0  0  0  0  0
    4.2227   12.8251   10.2623 H   0  0  0  0  0  0  0  0  0  0  0  0
    2.6384   12.5840    9.4770 H   0  0  0  0  0  0  0  0  0  0  0  0
  1  2  1  0
  2  3  2  0
  2 31  1  0
  3  4  1  0
  3 32  1  0
  4  5  1  0
  5  6  2  0
  6  7  1  0
  6 33  1  0
  7 10  1  0
  7  8  2  0
  8  9  1  0
  8  4  1  0
  9  1  2  0
 10 11  2  0
 11 12  1  0
 12 13  1  0
 13 14  1  0
 13 15  1  0
 13 16  1  0
 14 34  1  0
 14 35  1  0
 14 36  1  0
 15 37  1  0
 15 38  1  0
 15 39  1  0
 16 10  1  0
 16 17  1  0
 18  1  1  0
 18 19  1  0
 20 21  1  0
 20 18  1  0
 20 40  1  1
 21 41  1  0
 21 42  1  0
 21 43  1  0
 22 23  2  0
 23 24  1  0
 23 44  1  0
 24 25  2  0
 24 45  1  0
 25 26  1  0
 25 27  1  0
 27 28  2  0
 27 46  1  0
 28 20  1  0
 28 22  1  0
 29 30  1  0
 29 47  1  0
 29 48  1  0
 29 49  1  0
 30 22  1  0
M  END
>  <minimizedAffinity>  (6) 
-9.28992

>  <mol_id>  (6) 
93720

>  <source_index>  (6) 
5

>  <layer>  (6) 
L2

>  <uniprot>  (6) 
P36897

>  <paff>  (6) 
7.3010000000000002

>  <smiles>  (6) 
COc1ccc(F)cc1[C@@H](C)Nc1ccn2ncc(C3=NOC(C)(C)N3)c2n1

>  <aimnet_interaction_kcal_mol>  (6) 
-62.276933713629923

$$$$
L2:P36897:102780
     RDKit          3D

 60 64  0  0  0  0  0  0  0  0999 V2000
    7.1848   17.5584   11.7991 C   0  0  0  0  0  0  0  0  0  0  0  0
    6.8348   16.2447   11.5033 C   0  0  0  0  0  0  0  0  0  0  0  0
    5.5216   15.9329   11.1300 C   0  0  0  0  0  0  0  0  0  0  0  0
    4.5781   16.9583   11.0783 C   0  0  0  0  0  0  0  0  0  0  0  0
    4.9126   18.2724   11.3383 C   0  0  0  0  0  0  0  0  0  0  0  0
    6.2049   18.5453   11.7136 C   0  0  0  0  0  0  0  0  0  0  0  0
    6.5670   19.8207   12.0553 F   0  0  0  0  0  0  0  0  0  0  0  0
    5.1150   14.5994   10.7132 C   0  0  0  0  0  0  0  0  0  0  0  0
    4.2451   14.2243    9.7023 C   0  0  0  0  0  0  0  0  0  0  0  0
    4.2625   12.8372    9.5319 N   0  0  0  0  0  0  0  0  0  0  0  0
    5.0848   12.3912   10.4638 C   0  0  0  0  0  0  0  0  0  0  0  0
    5.6056   13.4032   11.2081 N   0  0  0  0  0  0  0  0  0  0  0  0
    6.4419   12.9163   12.2846 C   0  0  0  0  0  0  0  0  0  0  0  0
    6.5580   11.4095   11.9300 C   0  0  0  0  0  0  0  0  0  0  0  0
    5.6185   11.1471   10.8117 N   0  0  0  0  0  0  0  0  0  0  0  0
    4.9379   10.4127   11.0076 H   0  0  0  0  0  0  0  0  0  0  0  0
    3.4689   15.1489    8.8762 C   0  0  0  0  0  0  0  0  0  0  0  0
    2.0760   15.1396    8.7982 C   0  0  0  0  0  0  0  0  0  0  0  0
    1.4188   16.1963    8.1787 C   0  0  0  0  0  0  0  0  0  0  0  0
   -0.3132   16.3563    8.3032 Cl  0  0  0  0  0  0  0  0  0  0  0  0
    2.1066   17.1983    7.5105 C   0  0  0  0  0  0  0  0  0  0  0  0
    3.4883   17.1806    7.5264 C   0  0  0  0  0  0  0  0  0  0  0  0
    4.1289   16.1701    8.1981 C   0  0  0  0  0  0  0  0  0  0  0  0
    5.4865   16.1748    8.2020 F   0  0  0  0  0  0  0  0  0  0  0  0
    9.5064   16.0641   12.8058 O   0  0  0  0  0  0  0  0  0  0  0  0
    9.5274   17.2774   12.6377 C   0  0  0  0  0  0  0  0  0  0  0  0
    8.4568   17.9910   12.1534 N   0  0  0  0  0  0  0  0  0  0  0  0
    8.5719   18.9930   12.1291 H   0  0  0  0  0  0  0  0  0  0  0  0
   10.6819   18.2081   12.9201 C   0  0  0  0  0  0  0  0  0  0  0  0
   11.9333   17.5574   13.4679 C   0  0  0  0  0  0  0  0  0  0  0  0
   13.0818   18.4394   13.3666 N   0  0  0  0  0  0  0  0  0  0  0  0
   14.2983   17.8044   13.8768 C   0  0  0  0  0  0  0  0  0  0  0  0
   14.6037   18.1711   15.3196 C   0  0  0  0  0  0  0  0  0  0  0  0
   14.8259   19.6833   15.4574 C   0  0  0  0  0  0  0  0  0  0  0  0
   14.1471   20.4486   14.3237 C   0  0  0  0  0  0  0  0  0  0  0  0
   12.8512   19.7819   13.9290 C   0  0  0  0  0  0  0  0  0  0  0  0
    7.6089   15.4982   11.5474 H   0  0  0  0  0  0  0  0  0  0  0  0
    3.5638   16.7284   10.8223 H   0  0  0  0  0  0  0  0  0  0  0  0
    4.1838   19.0631   11.2491 H   0  0  0  0  0  0  0  0  0  0  0  0
    5.9593   13.0796   13.2457 H   0  0  0  0  0  0  0  0  0  0  0  0
    7.4004   13.4261   12.2978 H   0  0  0  0  0  0  0  0  0  0  0  0
    6.3166   10.7789   12.7795 H   0  0  0  0  0  0  0  0  0  0  0  0
    7.5757   11.1932   11.6082 H   0  0  0  0  0  0  0  0  0  0  0  0
    1.5146   14.3165    9.2146 H   0  0  0  0  0  0  0  0  0  0  0  0
    1.5761   17.9837    6.9988 H   0  0  0  0  0  0  0  0  0  0  0  0
    4.0625   17.9602    7.0505 H   0  0  0  0  0  0  0  0  0  0  0  0
   10.3392   19.0148   13.5707 H   0  0  0  0  0  0  0  0  0  0  0  0
   10.9460   18.7076   11.9897 H   0  0  0  0  0  0  0  0  0  0  0  0
   12.1281   16.6648   12.8779 H   0  0  0  0  0  0  0  0  0  0  0  0
   11.7740   17.2046   14.4988 H   0  0  0  0  0  0  0  0  0  0  0  0
   15.1478   18.1026   13.2542 H   0  0  0  0  0  0  0  0  0  0  0  0
   14.1985   16.7245   13.7555 H   0  0  0  0  0  0  0  0  0  0  0  0
   15.4794   17.6164   15.6597 H   0  0  0  0  0  0  0  0  0  0  0  0
   13.7776   17.8482   15.9570 H   0  0  0  0  0  0  0  0  0  0  0  0
   15.8926   19.9115   15.4568 H   0  0  0  0  0  0  0  0  0  0  0  0
   14.4232   20.0238   16.4088 H   0  0  0  0  0  0  0  0  0  0  0  0
   14.7952   20.5119   13.4473 H   0  0  0  0  0  0  0  0  0  0  0  0
   13.9299   21.4641   14.6417 H   0  0  0  0  0  0  0  0  0  0  0  0
   12.3179   20.3947   13.2000 H   0  0  0  0  0  0  0  0  0  0  0  0
   12.2088   19.7467   14.8175 H   0  0  0  0  0  0  0  0  0  0  0  0
  1  2  2  0
  2  3  1  0
  2 37  1  0
  3  8  1  0
  3  4  2  0
  4  5  1  0
  4 38  1  0
  5  6  2  0
  5 39  1  0
  6  7  1  0
  6  1  1  0
  8  9  2  0
  9 17  1  0
  9 10  1  0
 10 11  2  0
 11 12  1  0
 12 13  1  0
 12  8  1  0
 13 14  1  0
 13 40  1  0
 13 41  1  0
 14 15  1  0
 14 42  1  0
 14 43  1  0
 15 11  1  0
 15 16  1  0
 17 18  2  0
 18 19  1  0
 18 44  1  0
 19 20  1  0
 19 21  2  0
 21 22  1  0
 21 45  1  0
 22 23  2  0
 22 46  1  0
 23 24  1  0
 23 17  1  0
 25 26  2  0
 26 29  1  0
 26 27  1  0
 27  1  1  0
 27 28  1  0
 29 30  1  0
 29 47  1  0
 29 48  1  0
 30 31  1  0
 30 49  1  0
 30 50  1  0
 31 32  1  0
 32 33  1  0
 32 51  1  0
 32 52  1  0
 33 34  1  0
 33 53  1  0
 33 54  1  0
 34 35  1  0
 34 55  1  0
 34 56  1  0
 35 36  1  0
 35 57  1  0
 35 58  1  0
 36 31  1  0
 36 59  1  0
 36 60  1  0
M  END
>  <minimizedAffinity>  (7) 
-10.71468

>  <mol_id>  (7) 
102780

>  <source_index>  (7) 
6

>  <layer>  (7) 
L2

>  <uniprot>  (7) 
P36897

>  <paff>  (7) 
9

>  <smiles>  (7) 
O=C(CCN1CCCCC1)Nc1cc(-c2c(-c3cc(Cl)ccc3F)nc3n2CCN3)ccc1F

>  <aimnet_interaction_kcal_mol>  (7) 
-78.963901651740358

$$$$
L2:P36897:105371
     RDKit          3D

 56 60  0  0  0  0  0  0  0  0999 V2000
    6.6394   13.1710   11.7201 N   0  0  0  0  0  0  0  0  0  0  0  0
    5.5170   13.0324   10.9720 C   0  0  0  0  0  0  0  0  0  0  0  0
    5.0703   14.3017   10.6296 C   0  0  0  0  0  0  0  0  0  0  0  0
    6.0222   15.1760   11.2610 C   0  0  0  0  0  0  0  0  0  0  0  0
    6.9512   14.4599   11.9033 N   0  0  0  0  0  0  0  0  0  0  0  0
    3.8341   14.5582    9.8967 C   0  0  0  0  0  0  0  0  0  0  0  0
    2.7685   13.6876   10.0361 C   0  0  0  0  0  0  0  0  0  0  0  0
    1.4855   14.0761    9.6208 C   0  0  0  0  0  0  0  0  0  0  0  0
    1.2426   15.1975    8.9852 N   0  0  0  0  0  0  0  0  0  0  0  0
    2.3013   15.9674    8.6415 C   0  0  0  0  0  0  0  0  0  0  0  0
    2.0520   17.1078    7.8533 C   0  0  0  0  0  0  0  0  0  0  0  0
    3.0747   17.9328    7.4695 C   0  0  0  0  0  0  0  0  0  0  0  0
    4.4025   17.5841    7.7835 C   0  0  0  0  0  0  0  0  0  0  0  0
    4.6821   16.4615    8.5152 C   0  0  0  0  0  0  0  0  0  0  0  0
    3.6405   15.6705    9.0317 C   0  0  0  0  0  0  0  0  0  0  0  0
    6.0664   16.6300   11.3845 C   0  0  0  0  0  0  0  0  0  0  0  0
    4.8910   17.3774   11.3348 C   0  0  0  0  0  0  0  0  0  0  0  0
    4.9536   18.7431   11.5298 C   0  0  0  0  0  0  0  0  0  0  0  0
    6.1833   19.3088   11.8241 C   0  0  0  0  0  0  0  0  0  0  0  0
    7.2985   18.4893   11.8466 C   0  0  0  0  0  0  0  0  0  0  0  0
    7.2683   17.1814   11.6046 N   0  0  0  0  0  0  0  0  0  0  0  0
    7.3965   12.1024   12.3336 C   0  0  0  0  0  0  0  0  0  0  0  0
    9.3422   13.4496   12.8693 N   0  0  0  0  0  0  0  0  0  0  0  0
    8.9067   12.2633   12.4511 C   0  0  0  0  0  0  0  0  0  0  0  0
    9.6408   11.2896   12.2171 O   0  0  0  0  0  0  0  0  0  0  0  0
    8.6922   14.2323   12.8223 H   0  0  0  0  0  0  0  0  0  0  0  0
   10.7611   13.7160   13.0178 C   0  0  0  0  0  0  0  0  0  0  0  0
   12.8295   18.9729   14.2564 C   0  0  0  0  0  0  0  0  0  0  0  0
   12.1997   17.6267   14.0740 C   0  0  0  0  0  0  0  0  0  0  0  0
   12.7379   16.4745   14.6428 C   0  0  0  0  0  0  0  0  0  0  0  0
   12.1852   15.2275   14.3884 C   0  0  0  0  0  0  0  0  0  0  0  0
   11.0959   15.0882   13.5309 C   0  0  0  0  0  0  0  0  0  0  0  0
   10.4784   16.2485   13.0651 C   0  0  0  0  0  0  0  0  0  0  0  0
   11.0406   17.4904   13.3152 C   0  0  0  0  0  0  0  0  0  0  0  0
    5.0948   12.0529   10.8019 H   0  0  0  0  0  0  0  0  0  0  0  0
    2.9346   12.7166   10.4763 H   0  0  0  0  0  0  0  0  0  0  0  0
    0.6338   13.4373    9.8023 H   0  0  0  0  0  0  0  0  0  0  0  0
    1.0215   17.2983    7.5902 H   0  0  0  0  0  0  0  0  0  0  0  0
    2.8765   18.8608    6.9537 H   0  0  0  0  0  0  0  0  0  0  0  0
    5.2124   18.2196    7.4673 H   0  0  0  0  0  0  0  0  0  0  0  0
    5.7048   16.1959    8.7435 H   0  0  0  0  0  0  0  0  0  0  0  0
    3.9488   16.8906   11.1535 H   0  0  0  0  0  0  0  0  0  0  0  0
    4.0706   19.3544   11.4420 H   0  0  0  0  0  0  0  0  0  0  0  0
    6.2725   20.3662   12.0091 H   0  0  0  0  0  0  0  0  0  0  0  0
    8.2694   18.9077   12.0789 H   0  0  0  0  0  0  0  0  0  0  0  0
    7.0197   11.9155   13.3365 H   0  0  0  0  0  0  0  0  0  0  0  0
    7.2045   11.2041   11.7592 H   0  0  0  0  0  0  0  0  0  0  0  0
   11.1799   12.9519   13.6700 H   0  0  0  0  0  0  0  0  0  0  0  0
   11.2473   13.5705   12.0451 H   0  0  0  0  0  0  0  0  0  0  0  0
   13.5428   18.9805   15.0777 H   0  0  0  0  0  0  0  0  0  0  0  0
   12.0863   19.7404   14.4654 H   0  0  0  0  0  0  0  0  0  0  0  0
   13.3574   19.2736   13.3515 H   0  0  0  0  0  0  0  0  0  0  0  0
   13.6116   16.5503   15.2790 H   0  0  0  0  0  0  0  0  0  0  0  0
   12.6403   14.3461   14.8246 H   0  0  0  0  0  0  0  0  0  0  0  0
    9.5884   16.1876   12.4508 H   0  0  0  0  0  0  0  0  0  0  0  0
   10.5911   18.3738   12.8794 H   0  0  0  0  0  0  0  0  0  0  0  0
  1  2  1  0
  2  3  2  0
  2 35  1  0
  3  6  1  0
  3  4  1  0
  4 16  1  0
  4  5  2  0
  5  1  1  0
  6  7  2  0
  7  8  1  0
  7 36  1  0
  8  9  2  0
  8 37  1  0
  9 10  1  0
 10 11  2  0
 11 12  1  0
 11 38  1  0
 12 13  2  0
 12 39  1  0
 13 14  1  0
 13 40  1  0
 14 15  2  0
 14 41  1  0
 15  6  1  0
 15 10  1  0
 16 17  2  0
 17 18  1  0
 17 42  1  0
 18 19  2  0
 18 43  1  0
 19 20  1  0
 19 44  1  0
 20 21  2  0
 20 45  1  0
 21 16  1  0
 22  1  1  0
 22 46  1  0
 22 47  1  0
 23 24  1  0
 23 26  1  0
 24 25  2  0
 24 22  1  0
 27 23  1  0
 27 48  1  0
 27 49  1  0
 28 29  1  0
 28 50  1  0
 28 51  1  0
 28 52  1  0
 29 30  2  0
 30 31  1  0
 30 53  1  0
 31 32  2  0
 31 54  1  0
 32 27  1  0
 32 33  1  0
 33 34  2  0
 33 55  1  0
 34 29  1  0
 34 56  1  0
M  END
>  <minimizedAffinity>  (8) 
-10.94525

>  <mol_id>  (8) 
105371

>  <source_index>  (8) 
7

>  <layer>  (8) 
L2

>  <uniprot>  (8) 
P36897

>  <paff>  (8) 
6.3468

>  <smiles>  (8) 
Cc1ccc(CNC(=O)Cn2cc(-c3ccnc4ccccc34)c(-c3ccccn3)n2)cc1

>  <aimnet_interaction_kcal_mol>  (8) 
-64.113640661679355

$$$$
L2:P36897:108760
     RDKit          3D

 57 62  0  0  0  0  0  0  0  0999 V2000
    6.3226   16.1870   11.3025 C   0  0  0  0  0  0  0  0  0  0  0  0
    5.4319   17.2659   11.2770 C   0  0  0  0  0  0  0  0  0  0  0  0
    5.8896   18.5309   11.6095 C   0  0  0  0  0  0  0  0  0  0  0  0
    7.1326   18.7917   12.0309 N   0  0  0  0  0  0  0  0  0  0  0  0
    7.9526   17.7411   12.1484 C   0  0  0  0  0  0  0  0  0  0  0  0
    7.6115   16.4438   11.7602 C   0  0  0  0  0  0  0  0  0  0  0  0
    9.2600   17.9664   12.7256 C   0  0  0  0  0  0  0  0  0  0  0  0
   10.1895   17.0281   12.9147 N   0  0  0  0  0  0  0  0  0  0  0  0
   11.3080   17.7229   13.2506 C   0  0  0  0  0  0  0  0  0  0  0  0
   11.0567   19.0580   13.3316 C   0  0  0  0  0  0  0  0  0  0  0  0
    9.7453   19.2271   13.0170 N   0  0  0  0  0  0  0  0  0  0  0  0
   12.2608   19.8604   13.6358 C   0  0  0  0  0  0  0  0  0  0  0  0
   13.2994   18.7996   13.7598 N   0  0  0  0  0  0  0  0  0  0  0  0
   14.2163   18.8476   14.8165 C   0  0  0  0  0  0  0  0  0  0  0  0
   14.5887   17.8203   15.3917 O   0  0  0  0  0  0  0  0  0  0  0  0
   14.6612   20.0846   15.1626 N   0  0  0  0  0  0  0  0  0  0  0  0
   14.8100   21.2664   14.3125 C   0  0  0  0  0  0  0  0  0  0  0  0
   16.0199   21.9815   14.8948 C   0  0  0  0  0  0  0  0  0  0  0  0
   15.9202   21.6591   16.3790 C   0  0  0  0  0  0  0  0  0  0  0  0
   15.4372   20.2192   16.3989 C   0  0  0  0  0  0  0  0  0  0  0  0
   12.7506   17.4462   13.4594 C   0  0  0  0  0  0  0  0  0  0  0  0
    9.1964   20.0654   13.1609 H   0  0  0  0  0  0  0  0  0  0  0  0
    5.1125   14.4347    9.7990 C   0  0  0  0  0  0  0  0  0  0  0  0
    5.1005   13.0543    9.7342 N   0  0  0  0  0  0  0  0  0  0  0  0
    5.8032   12.6435   10.7774 C   0  0  0  0  0  0  0  0  0  0  0  0
    6.3172   13.6897   11.4668 N   0  0  0  0  0  0  0  0  0  0  0  0
    5.9133   14.8578   10.8537 C   0  0  0  0  0  0  0  0  0  0  0  0
    6.8105   13.6302   12.3434 H   0  0  0  0  0  0  0  0  0  0  0  0
    0.7898   15.4955    8.0770 C   0  0  0  0  0  0  0  0  0  0  0  0
    2.2273   15.8599    8.1437 C   0  0  0  0  0  0  0  0  0  0  0  0
    2.6858   17.0900    7.6662 C   0  0  0  0  0  0  0  0  0  0  0  0
    4.0204   17.4119    7.8270 C   0  0  0  0  0  0  0  0  0  0  0  0
    4.8520   16.5078    8.4697 C   0  0  0  0  0  0  0  0  0  0  0  0
    4.3104   15.3109    8.9409 C   0  0  0  0  0  0  0  0  0  0  0  0
    3.0396   14.9595    8.7074 N   0  0  0  0  0  0  0  0  0  0  0  0
    4.4001   17.1323   10.9919 H   0  0  0  0  0  0  0  0  0  0  0  0
    5.2166   19.3771   11.5366 H   0  0  0  0  0  0  0  0  0  0  0  0
    8.3706   15.6800   11.8299 H   0  0  0  0  0  0  0  0  0  0  0  0
   12.1673   20.4292   14.5615 H   0  0  0  0  0  0  0  0  0  0  0  0
   12.5209   20.5665   12.8453 H   0  0  0  0  0  0  0  0  0  0  0  0
   13.9336   21.9055   14.4119 H   0  0  0  0  0  0  0  0  0  0  0  0
   14.9323   20.9882   13.2661 H   0  0  0  0  0  0  0  0  0  0  0  0
   15.9995   23.0496   14.6885 H   0  0  0  0  0  0  0  0  0  0  0  0
   16.9413   21.5742   14.4748 H   0  0  0  0  0  0  0  0  0  0  0  0
   15.1786   22.3054   16.8428 H   0  0  0  0  0  0  0  0  0  0  0  0
   16.8630   21.7850   16.9070 H   0  0  0  0  0  0  0  0  0  0  0  0
   14.8142   19.9806   17.2588 H   0  0  0  0  0  0  0  0  0  0  0  0
   16.2632   19.5052   16.3875 H   0  0  0  0  0  0  0  0  0  0  0  0
   12.9593   16.7888   14.3014 H   0  0  0  0  0  0  0  0  0  0  0  0
   13.2268   17.0185   12.5763 H   0  0  0  0  0  0  0  0  0  0  0  0
    5.8983   11.6233   11.1029 H   0  0  0  0  0  0  0  0  0  0  0  0
    0.1979   16.2671    7.5927 H   0  0  0  0  0  0  0  0  0  0  0  0
    0.3914   15.3401    9.0752 H   0  0  0  0  0  0  0  0  0  0  0  0
    0.6676   14.5503    7.5555 H   0  0  0  0  0  0  0  0  0  0  0  0
    2.0055   17.7880    7.2018 H   0  0  0  0  0  0  0  0  0  0  0  0
    4.3886   18.3757    7.5028 H   0  0  0  0  0  0  0  0  0  0  0  0
    5.8875   16.7454    8.6459 H   0  0  0  0  0  0  0  0  0  0  0  0
  1  2  2  0
  2  3  1  0
  2 36  1  0
  3  4  2  0
  3 37  1  0
  4  5  1  0
  5  7  1  0
  5  6  2  0
  6  1  1  0
  6 38  1  0
  7  8  2  0
  8  9  1  0
  9 10  2  0
 10 11  1  0
 10 12  1  0
 11  7  1  0
 11 22  1  0
 12 13  1  0
 12 39  1  0
 12 40  1  0
 13 14  1  0
 13 21  1  0
 14 15  2  0
 14 16  1  0
 16 17  1  0
 17 18  1  0
 17 41  1  0
 17 42  1  0
 18 19  1  0
 18 43  1  0
 18 44  1  0
 19 20  1  0
 19 45  1  0
 19 46  1  0
 20 16  1  0
 20 47  1  0
 20 48  1  0
 21  9  1  0
 21 49  1  0
 21 50  1  0
 23 24  1  0
 24 25  2  0
 25 26  1  0
 25 51  1  0
 26 27  1  0
 26 28  1  0
 27  1  1  0
 27 23  2  0
 29 30  1  0
 29 52  1  0
 29 53  1  0
 29 54  1  0
 30 31  2  0
 31 32  1  0
 31 55  1  0
 32 33  2  0
 32 56  1  0
 33 34  1  0
 33 57  1  0
 34 23  1  0
 34 35  2  0
 35 30  1  0
M  END
>  <minimizedAffinity>  (9) 
-11.45037

>  <mol_id>  (9) 
108760

>  <source_index>  (9) 
8

>  <layer>  (9) 
L2

>  <uniprot>  (9) 
P36897

>  <paff>  (9) 
7.6576000000000004

>  <smiles>  (9) 
Cc1cccc(-c2nc[nH]c2-c2ccnc(-c3nc4c([nH]3)CN(C(=O)N3CCCC3)C4)c2)n1

>  <aimnet_interaction_kcal_mol>  (9) 
-76.030603333275792

$$$$
L2:P36897:109621
     RDKit          3D

 42 47  0  0  0  0  0  0  0  0999 V2000
    4.9758   14.7719    9.4504 C   0  0  0  0  0  0  0  0  0  0  0  0
    4.8225   13.3890    9.3498 N   0  0  0  0  0  0  0  0  0  0  0  0
    5.5890   12.8944   10.2969 C   0  0  0  0  0  0  0  0  0  0  0  0
    6.3616   13.8527   10.8836 N   0  0  0  0  0  0  0  0  0  0  0  0
    5.9466   15.0852   10.3999 C   0  0  0  0  0  0  0  0  0  0  0  0
    7.1630   13.3622   12.0016 C   0  0  0  0  0  0  0  0  0  0  0  0
    6.5737   11.9772   12.2356 C   0  0  1  0  0  0  0  0  0  0  0  0
    5.1338   11.9755   12.5369 C   0  0  0  0  0  0  0  0  0  0  0  0
    5.5831   11.6824   11.1232 C   0  0  1  0  0  0  0  0  0  0  0  0
    6.3936   16.3548   10.9620 C   0  0  0  0  0  0  0  0  0  0  0  0
    5.4611   17.4015   11.1483 C   0  0  0  0  0  0  0  0  0  0  0  0
    5.8403   18.6462   11.6100 C   0  0  0  0  0  0  0  0  0  0  0  0
    7.1640   18.8409   11.9973 C   0  0  0  0  0  0  0  0  0  0  0  0
    7.7930   19.9331   12.5805 N   0  0  0  0  0  0  0  0  0  0  0  0
    9.0327   19.5638   12.7869 C   0  0  0  0  0  0  0  0  0  0  0  0
    9.2715   18.2774   12.3697 N   0  0  0  0  0  0  0  0  0  0  0  0
    8.0850   17.7868   11.8448 C   0  0  0  0  0  0  0  0  0  0  0  0
    7.7314   16.5568   11.3109 C   0  0  0  0  0  0  0  0  0  0  0  0
   10.1768   17.8393   12.2879 H   0  0  0  0  0  0  0  0  0  0  0  0
    0.5777   16.0346    8.0713 C   0  0  0  0  0  0  0  0  0  0  0  0
    2.0397   16.3207    8.0029 C   0  0  0  0  0  0  0  0  0  0  0  0
    2.5370   17.4594    7.3639 C   0  0  0  0  0  0  0  0  0  0  0  0
    3.8814   17.7586    7.5063 C   0  0  0  0  0  0  0  0  0  0  0  0
    4.6895   16.9048    8.2378 C   0  0  0  0  0  0  0  0  0  0  0  0
    4.1370   15.7239    8.7295 C   0  0  0  0  0  0  0  0  0  0  0  0
    2.8347   15.4375    8.6113 N   0  0  0  0  0  0  0  0  0  0  0  0
    7.0628   14.0219   12.8631 H   0  0  0  0  0  0  0  0  0  0  0  0
    8.2194   13.3332   11.7250 H   0  0  0  0  0  0  0  0  0  0  0  0
    7.2049   11.2034   12.6490 H   0  0  0  0  0  0  0  0  0  0  0  0
    4.6406   12.9169   12.7180 H   0  0  0  0  0  0  0  0  0  0  0  0
    4.7466   11.1292   13.0761 H   0  0  0  0  0  0  0  0  0  0  0  0
    5.3917   10.6933   10.7339 H   0  0  0  0  0  0  0  0  0  0  0  0
    4.4244   17.2142   10.9100 H   0  0  0  0  0  0  0  0  0  0  0  0
    5.1289   19.4573   11.6607 H   0  0  0  0  0  0  0  0  0  0  0  0
    9.7844   20.1773   13.2512 H   0  0  0  0  0  0  0  0  0  0  0  0
    8.4732   15.7919   11.1275 H   0  0  0  0  0  0  0  0  0  0  0  0
   -0.0032   16.7506    7.5000 H   0  0  0  0  0  0  0  0  0  0  0  0
    0.2322   16.0746    9.1013 H   0  0  0  0  0  0  0  0  0  0  0  0
    0.3747   15.0315    7.7137 H   0  0  0  0  0  0  0  0  0  0  0  0
    1.8846   18.1052    6.7951 H   0  0  0  0  0  0  0  0  0  0  0  0
    4.2812   18.6619    7.0699 H   0  0  0  0  0  0  0  0  0  0  0  0
    5.7080   17.1604    8.4681 H   0  0  0  0  0  0  0  0  0  0  0  0
  1  2  1  0
  2  3  2  0
  3  4  1  0
  4  5  1  0
  4  6  1  0
  5 10  1  0
  5  1  2  0
  6  7  1  0
  6 27  1  0
  6 28  1  0
  7  8  1  0
  7 29  1  1
  8  9  1  0
  8 30  1  0
  8 31  1  0
  9  7  1  0
  9  3  1  0
  9 32  1  6
 10 11  2  0
 11 12  1  0
 11 33  1  0
 12 13  2  0
 12 34  1  0
 13 14  1  0
 14 15  2  0
 15 16  1  0
 15 35  1  0
 16 17  1  0
 16 19  1  0
 17 18  2  0
 17 13  1  0
 18 10  1  0
 18 36  1  0
 20 21  1  0
 20 37  1  0
 20 38  1  0
 20 39  1  0
 21 22  2  0
 22 23  1  0
 22 40  1  0
 23 24  2  0
 23 41  1  0
 24 25  1  0
 24 42  1  0
 25  1  1  0
 25 26  2  0
 26 21  1  0
M  END
>  <minimizedAffinity>  (10) 
-10.84134

>  <mol_id>  (10) 
109621

>  <source_index>  (10) 
9

>  <layer>  (10) 
L2

>  <uniprot>  (10) 
P36897

>  <paff>  (10) 
7.9207999999999998

>  <smiles>  (10) 
Cc1cccc(-c2nc3n(c2-c2ccc4nc[nH]c4c2)CC2CC32)n1

>  <aimnet_interaction_kcal_mol>  (10) 
-60.652321553339846

$$$$
