L2:P36897:3771
     RDKit          3D

 53 57  0  0  0  0  0  0  0  0999 V2000
    7.2331   16.7230   11.4238 C   0  0  0  0  0  0  0  0  0  0  0  0
    5.9038   16.4791   11.2553 C   0  0  0  0  0  0  0  0  0  0  0  0
    4.9534   17.5581   11.5643 C   0  0  0  0  0  0  0  0  0  0  0  0
    5.3437   18.7720   11.9855 C   0  0  0  0  0  0  0  0  0  0  0  0
    6.7240   19.0422   12.1377 C   0  0  0  0  0  0  0  0  0  0  0  0
    7.3626   20.1276   12.5122 N   0  0  0  0  0  0  0  0  0  0  0  0
    8.6661   19.7459   12.4489 C   0  0  0  0  0  0  0  0  0  0  0  0
    8.8912   18.4946   12.0530 N   0  0  0  0  0  0  0  0  0  0  0  0
    7.6276   18.0131   11.8529 N   0  0  0  0  0  0  0  0  0  0  0  0
    5.3639   15.2410   10.7798 C   0  0  0  0  0  0  0  0  0  0  0  0
    4.4592   14.9868    9.6764 C   0  0  0  0  0  0  0  0  0  0  0  0
    4.2263   13.6529    9.5529 N   0  0  0  0  0  0  0  0  0  0  0  0
    4.9286   13.1344   10.5494 N   0  0  0  0  0  0  0  0  0  0  0  0
    5.6289   14.0063   11.3045 C   0  0  0  0  0  0  0  0  0  0  0  0
    6.3735   13.3009   12.3603 C   0  0  0  0  0  0  0  0  0  0  0  0
    5.7024   11.8996   12.3412 C   0  0  0  0  0  0  0  0  0  0  0  0
    5.0587   11.7479   10.9493 C   0  0  0  0  0  0  0  0  0  0  0  0
    3.8210   15.9688    8.7812 C   0  0  0  0  0  0  0  0  0  0  0  0
    4.5837   16.8613    8.0344 C   0  0  0  0  0  0  0  0  0  0  0  0
    3.9347   17.7588    7.1917 C   0  0  0  0  0  0  0  0  0  0  0  0
    2.5468   17.7396    7.1147 C   0  0  0  0  0  0  0  0  0  0  0  0
    1.8474   16.8191    7.8867 C   0  0  0  0  0  0  0  0  0  0  0  0
    0.3504   16.7655    7.8271 C   0  0  0  0  0  0  0  0  0  0  0  0
    2.4642   15.9416    8.7119 N   0  0  0  0  0  0  0  0  0  0  0  0
    9.0250   15.1441   12.1011 C   0  0  0  0  0  0  0  0  0  0  0  0
    8.2836   15.7413   11.1541 C   0  0  0  0  0  0  0  0  0  0  0  0
   10.0953   14.1650   11.8263 C   0  0  0  0  0  0  0  0  0  0  0  0
   10.0012   13.3301   10.9390 O   0  0  0  0  0  0  0  0  0  0  0  0
   11.1563   14.3374   12.6522 O   0  0  0  0  0  0  0  0  0  0  0  0
   12.1400   16.0640   14.0326 C   0  0  0  0  0  0  0  0  0  0  0  0
   10.9291   15.1830   13.7881 C   0  0  0  0  0  0  0  0  0  0  0  0
    3.9440   17.3746   11.4527 H   0  0  0  0  0  0  0  0  0  0  0  0
    4.6437   19.5005   12.1961 H   0  0  0  0  0  0  0  0  0  0  0  0
    9.4359   20.3883   12.6934 H   0  0  0  0  0  0  0  0  0  0  0  0
    6.2503   13.7789   13.3096 H   0  0  0  0  0  0  0  0  0  0  0  0
    7.4314   13.2767   12.2019 H   0  0  0  0  0  0  0  0  0  0  0  0
    4.9548   11.8363   13.1041 H   0  0  0  0  0  0  0  0  0  0  0  0
    6.4158   11.1240   12.5267 H   0  0  0  0  0  0  0  0  0  0  0  0
    4.1055   11.2653   11.0081 H   0  0  0  0  0  0  0  0  0  0  0  0
    5.6210   11.1442   10.2679 H   0  0  0  0  0  0  0  0  0  0  0  0
    5.6133   16.8578    8.1042 H   0  0  0  0  0  0  0  0  0  0  0  0
    4.4785   18.4320    6.6295 H   0  0  0  0  0  0  0  0  0  0  0  0
    2.0453   18.3961    6.4963 H   0  0  0  0  0  0  0  0  0  0  0  0
   -0.0060   17.5063    7.1422 H   0  0  0  0  0  0  0  0  0  0  0  0
   -0.0523   16.9560    8.7999 H   0  0  0  0  0  0  0  0  0  0  0  0
    0.0411   15.7960    7.4966 H   0  0  0  0  0  0  0  0  0  0  0  0
    8.8340   15.3855   13.0861 H   0  0  0  0  0  0  0  0  0  0  0  0
    8.4672   15.4909   10.1699 H   0  0  0  0  0  0  0  0  0  0  0  0
   11.9600   16.6902   14.8814 H   0  0  0  0  0  0  0  0  0  0  0  0
   12.3176   16.6733   13.1711 H   0  0  0  0  0  0  0  0  0  0  0  0
   12.9964   15.4498   14.2177 H   0  0  0  0  0  0  0  0  0  0  0  0
   10.0740   15.7996   13.6049 H   0  0  0  0  0  0  0  0  0  0  0  0
   10.7599   14.5729   14.6507 H   0  0  0  0  0  0  0  0  0  0  0  0
  1  2  2  0
  2 10  1  0
  2  3  1  0
  3  4  2  0
  3 32  1  0
  4  5  1  0
  4 33  1  0
  5  6  2  0
  6  7  1  0
  7  8  2  0
  7 34  1  0
  8  9  1  0
  9  1  1  0
  9  5  1  0
 10 11  1  0
 11 18  1  0
 11 12  2  0
 12 13  1  0
 13 14  1  0
 14 15  1  0
 14 10  2  0
 15 16  1  0
 15 35  1  0
 15 36  1  0
 16 17  1  0
 16 37  1  0
 16 38  1  0
 17 13  1  0
 17 39  1  0
 17 40  1  0
 18 19  2  0
 19 20  1  0
 19 41  1  0
 20 21  2  0
 20 42  1  0
 21 22  1  0
 21 43  1  0
 22 23  1  0
 22 24  2  0
 23 44  1  0
 23 45  1  0
 23 46  1  0
 24 18  1  0
 25 26  2  0
 25 47  1  0
 26  1  1  0
 26 48  1  0
 27 28  2  0
 27 25  1  0
 29 27  1  0
 30 31  1  0
 30 49  1  0
 30 50  1  0
 30 51  1  0
 31 29  1  0
 31 52  1  0
 31 53  1  0
M  END
>  <minimizedAffinity>  (1) 
-10.77962

>  <mol_id>  (1) 
3771

>  <source_index>  (1) 
0

>  <layer>  (1) 
L2

>  <uniprot>  (1) 
P36897

>  <paff>  (1) 
6.4894999999999996

>  <smiles>  (1) 
CCOC(=O)/C=C/c1c(-c2c(-c3cccc(C)n3)nn3c2CCC3)ccc2ncnn12

$$$$
L2:P36897:32660
     RDKit          3D

 53 57  0  0  0  0  0  0  0  0999 V2000
    6.4711   13.9801   11.0503 N   0  0  0  0  0  0  0  0  0  0  0  0
    5.6560   14.2338    9.9895 C   0  0  0  0  0  0  0  0  0  0  0  0
    5.4664   15.5996    9.9790 C   0  0  0  0  0  0  0  0  0  0  0  0
    6.2372   16.0992   11.0760 C   0  0  0  0  0  0  0  0  0  0  0  0
    6.8780   15.0895   11.6951 N   0  0  0  0  0  0  0  0  0  0  0  0
    4.6006   16.2736    9.0259 C   0  0  0  0  0  0  0  0  0  0  0  0
    5.1448   17.3242    8.2845 C   0  0  0  0  0  0  0  0  0  0  0  0
    4.3215   17.9957    7.4074 C   0  0  0  0  0  0  0  0  0  0  0  0
    3.0204   17.6975    7.2264 N   0  0  0  0  0  0  0  0  0  0  0  0
    2.4938   16.6789    7.9273 C   0  0  0  0  0  0  0  0  0  0  0  0
    1.1546   16.3723    7.7254 C   0  0  0  0  0  0  0  0  0  0  0  0
    0.5232   15.3271    8.4024 C   0  0  0  0  0  0  0  0  0  0  0  0
    1.2447   14.5600    9.3041 C   0  0  0  0  0  0  0  0  0  0  0  0
    2.5908   14.8462    9.5255 C   0  0  0  0  0  0  0  0  0  0  0  0
    3.2392   15.9135    8.8512 C   0  0  0  0  0  0  0  0  0  0  0  0
    6.3608   17.4854   11.5399 C   0  0  0  0  0  0  0  0  0  0  0  0
    5.2395   18.2102   11.9341 C   0  0  0  0  0  0  0  0  0  0  0  0
    5.4144   19.5134   12.3926 C   0  0  0  0  0  0  0  0  0  0  0  0
    6.6944   20.0521   12.4410 C   0  0  0  0  0  0  0  0  0  0  0  0
    7.7546   19.2623   12.0284 C   0  0  0  0  0  0  0  0  0  0  0  0
    7.6208   17.9945   11.5851 N   0  0  0  0  0  0  0  0  0  0  0  0
    6.9015   12.6832   11.5371 C   0  0  0  0  0  0  0  0  0  0  0  0
    9.1774   13.1658   10.9412 O   0  0  0  0  0  0  0  0  0  0  0  0
    8.4010   12.6417   11.7376 C   0  0  0  0  0  0  0  0  0  0  0  0
    8.8144   12.0263   12.8955 N   0  0  0  0  0  0  0  0  0  0  0  0
    8.1170   11.5166   13.4418 H   0  0  0  0  0  0  0  0  0  0  0  0
   10.2081   11.8547   13.2206 C   0  0  0  0  0  0  0  0  0  0  0  0
   10.6803   10.4585   12.9130 C   0  0  0  0  0  0  0  0  0  0  0  0
    9.7585    9.4210   12.7162 C   0  0  0  0  0  0  0  0  0  0  0  0
   10.1979    8.1265   12.4326 C   0  0  0  0  0  0  0  0  0  0  0  0
   11.5619    7.8559   12.3403 C   0  0  0  0  0  0  0  0  0  0  0  0
   12.4882    8.8791   12.5307 C   0  0  0  0  0  0  0  0  0  0  0  0
   12.0514   10.1734   12.8167 C   0  0  0  0  0  0  0  0  0  0  0  0
    5.2614   13.5457    9.3294 H   0  0  0  0  0  0  0  0  0  0  0  0
    6.1362   17.5903    8.3906 H   0  0  0  0  0  0  0  0  0  0  0  0
    4.7243   18.7709    6.8580 H   0  0  0  0  0  0  0  0  0  0  0  0
    0.6089   16.9346    7.0539 H   0  0  0  0  0  0  0  0  0  0  0  0
   -0.4748   15.1267    8.2326 H   0  0  0  0  0  0  0  0  0  0  0  0
    0.7887   13.7831    9.8075 H   0  0  0  0  0  0  0  0  0  0  0  0
    3.1268   14.2703   10.1933 H   0  0  0  0  0  0  0  0  0  0  0  0
    4.2979   17.7903   11.8875 H   0  0  0  0  0  0  0  0  0  0  0  0
    4.6015   20.0735   12.6934 H   0  0  0  0  0  0  0  0  0  0  0  0
    6.8509   21.0157   12.7757 H   0  0  0  0  0  0  0  0  0  0  0  0
    8.7033   19.6672   12.0619 H   0  0  0  0  0  0  0  0  0  0  0  0
    6.4192   12.4838   12.4712 H   0  0  0  0  0  0  0  0  0  0  0  0
    6.6372   11.9444   10.8096 H   0  0  0  0  0  0  0  0  0  0  0  0
   10.3476   12.0466   14.2640 H   0  0  0  0  0  0  0  0  0  0  0  0
   10.7773   12.5393   12.6271 H   0  0  0  0  0  0  0  0  0  0  0  0
    8.7471    9.6156   12.7815 H   0  0  0  0  0  0  0  0  0  0  0  0
    9.5116    7.3689   12.2911 H   0  0  0  0  0  0  0  0  0  0  0  0
   11.8855    6.8985   12.1311 H   0  0  0  0  0  0  0  0  0  0  0  0
   13.4983    8.6797   12.4602 H   0  0  0  0  0  0  0  0  0  0  0  0
   12.7420   10.9270   12.9585 H   0  0  0  0  0  0  0  0  0  0  0  0
  1  2  1  0
  2  3  2  0
  2 34  1  0
  3  6  1  0
  3  4  1  0
  4 16  1  0
  4  5  2  0
  5  1  1  0
  6  7  2  0
  7  8  1  0
  7 35  1  0
  8  9  2  0
  8 36  1  0
  9 10  1  0
 10 11  2  0
 11 12  1  0
 11 37  1  0
 12 13  2  0
 12 38  1  0
 13 14  1  0
 13 39  1  0
 14 15  2  0
 14 40  1  0
 15  6  1  0
 15 10  1  0
 16 17  2  0
 17 18  1  0
 17 41  1  0
 18 19  2  0
 18 42  1  0
 19 20  1  0
 19 43  1  0
 20 21  2  0
 20 44  1  0
 21 16  1  0
 22  1  1  0
 22 45  1  0
 22 46  1  0
 23 24  2  0
 24 22  1  0
 24 25  1  0
 25 27  1  0
 25 26  1  0
 27 28  1  0
 27 47  1  0
 27 48  1  0
 28 29  2  0
 29 30  1  0
 29 49  1  0
 30 31  2  0
 30 50  1  0
 31 32  1  0
 31 51  1  0
 32 33  2  0
 32 52  1  0
 33 28  1  0
 33 53  1  0
M  END
>  <minimizedAffinity>  (2) 
-11.07051

>  <mol_id>  (2) 
32660

>  <source_index>  (2) 
1

>  <layer>  (2) 
L2

>  <uniprot>  (2) 
P36897

>  <paff>  (2) 
7

>  <smiles>  (2) 
O=C(Cn1cc(-c2ccnc3ccccc23)c(-c2ccccn2)n1)NCc1ccccc1

$$$$
L2:P36897:43953
     RDKit          3D

 49 53  0  0  0  0  0  0  0  0999 V2000
    5.7929   16.6982   11.3916 C   0  0  0  0  0  0  0  0  0  0  0  0
    4.8793   17.7901   11.7523 C   0  0  0  0  0  0  0  0  0  0  0  0
    5.3122   19.0040   12.1254 C   0  0  0  0  0  0  0  0  0  0  0  0
    6.7018   19.2574   12.1759 C   0  0  0  0  0  0  0  0  0  0  0  0
    7.3696   20.3445   12.4884 N   0  0  0  0  0  0  0  0  0  0  0  0
    8.6614   19.9598   12.3281 C   0  0  0  0  0  0  0  0  0  0  0  0
    8.8519   18.7015   11.9387 N   0  0  0  0  0  0  0  0  0  0  0  0
    7.5769   18.2141   11.8419 N   0  0  0  0  0  0  0  0  0  0  0  0
    7.1386   16.9159   11.4622 C   0  0  0  0  0  0  0  0  0  0  0  0
    4.2920   15.1795    9.8917 C   0  0  0  0  0  0  0  0  0  0  0  0
    3.9551   13.8626    9.8819 N   0  0  0  0  0  0  0  0  0  0  0  0
    4.6276   13.3742   10.9142 N   0  0  0  0  0  0  0  0  0  0  0  0
    5.3738   14.2562   11.6120 C   0  0  0  0  0  0  0  0  0  0  0  0
    5.1956   15.4601   10.9894 C   0  0  0  0  0  0  0  0  0  0  0  0
    6.0697   13.5874   12.7236 C   0  0  0  0  0  0  0  0  0  0  0  0
    5.3273   12.2238   12.7914 C   0  0  0  0  0  0  0  0  0  0  0  0
    4.6808   12.0131   11.4084 C   0  0  0  0  0  0  0  0  0  0  0  0
    0.4392   16.9683    7.5625 C   0  0  0  0  0  0  0  0  0  0  0  0
    1.9248   16.9822    7.7634 C   0  0  0  0  0  0  0  0  0  0  0  0
    2.7238   17.8470    7.0245 C   0  0  0  0  0  0  0  0  0  0  0  0
    4.0979   17.8336    7.2368 C   0  0  0  0  0  0  0  0  0  0  0  0
    4.6348   16.9585    8.1763 C   0  0  0  0  0  0  0  0  0  0  0  0
    3.7769   16.1176    8.8780 C   0  0  0  0  0  0  0  0  0  0  0  0
    2.4322   16.1280    8.6826 N   0  0  0  0  0  0  0  0  0  0  0  0
    8.1006   15.8661   11.0907 C   0  0  0  0  0  0  0  0  0  0  0  0
    8.9554   15.2389   11.9144 C   0  0  0  0  0  0  0  0  0  0  0  0
    9.8792   14.1729   11.4641 C   0  0  0  0  0  0  0  0  0  0  0  0
    9.5165   13.3188   10.6596 O   0  0  0  0  0  0  0  0  0  0  0  0
   11.1199   14.1702   12.0366 N   0  0  0  0  0  0  0  0  0  0  0  0
   11.9968   13.1339   11.6474 O   0  0  0  0  0  0  0  0  0  0  0  0
   11.4329   14.7949   12.7705 H   0  0  0  0  0  0  0  0  0  0  0  0
   11.4348   12.6075   11.0370 H   0  0  0  0  0  0  0  0  0  0  0  0
    3.8626   17.6165   11.7173 H   0  0  0  0  0  0  0  0  0  0  0  0
    4.6377   19.7448   12.3729 H   0  0  0  0  0  0  0  0  0  0  0  0
    9.4490   20.6047   12.4981 H   0  0  0  0  0  0  0  0  0  0  0  0
    5.9618   14.1352   13.6364 H   0  0  0  0  0  0  0  0  0  0  0  0
    7.1264   13.4981   12.5813 H   0  0  0  0  0  0  0  0  0  0  0  0
    4.5750   12.2491   13.5519 H   0  0  0  0  0  0  0  0  0  0  0  0
    5.9997   11.4268   13.0315 H   0  0  0  0  0  0  0  0  0  0  0  0
    3.7026   11.5879   11.4932 H   0  0  0  0  0  0  0  0  0  0  0  0
    5.2118   11.3351   10.7734 H   0  0  0  0  0  0  0  0  0  0  0  0
    0.1738   17.6854    6.8140 H   0  0  0  0  0  0  0  0  0  0  0  0
   -0.0475   17.2163    8.4826 H   0  0  0  0  0  0  0  0  0  0  0  0
    0.1310   15.9933    7.2475 H   0  0  0  0  0  0  0  0  0  0  0  0
    2.3051   18.4869    6.3315 H   0  0  0  0  0  0  0  0  0  0  0  0
    4.7137   18.4665    6.7028 H   0  0  0  0  0  0  0  0  0  0  0  0
    5.6519   16.9338    8.3495 H   0  0  0  0  0  0  0  0  0  0  0  0
    8.1201   15.5839   10.0982 H   0  0  0  0  0  0  0  0  0  0  0  0
    8.9693   15.5129   12.9093 H   0  0  0  0  0  0  0  0  0  0  0  0
  1  2  1  0
  2  3  2  0
  2 33  1  0
  3  4  1  0
  3 34  1  0
  4  5  2  0
  5  6  1  0
  6  7  2  0
  6 35  1  0
  7  8  1  0
  8  9  1  0
  8  4  1  0
  9 25  1  0
  9  1  2  0
 10 11  2  0
 11 12  1  0
 12 13  1  0
 13 14  2  0
 13 15  1  0
 14  1  1  0
 14 10  1  0
 15 16  1  0
 15 36  1  0
 15 37  1  0
 16 17  1  0
 16 38  1  0
 16 39  1  0
 17 12  1  0
 17 40  1  0
 17 41  1  0
 18 19  1  0
 18 42  1  0
 18 43  1  0
 18 44  1  0
 19 20  2  0
 20 21  1  0
 20 45  1  0
 21 22  2  0
 21 46  1  0
 22 23  1  0
 22 47  1  0
 23 10  1  0
 23 24  2  0
 24 19  1  0
 25 26  2  0
 25 48  1  0
 26 27  1  0
 26 49  1  0
 27 28  2  0
 27 29  1  0
 29 30  1  0
 29 31  1  0
 30 32  1  0
M  END
>  <minimizedAffinity>  (3) 
-11.50626

>  <mol_id>  (3) 
43953

>  <source_index>  (3) 
2

>  <layer>  (3) 
L2

>  <uniprot>  (3) 
P36897

>  <paff>  (3) 
7.3872

>  <smiles>  (3) 
Cc1cccc(-c2nn3c(c2-c2ccc4ncnn4c2/C=C/C(=O)NO)CCC3)n1

$$$$
L2:P36897:50724
     RDKit          3D

 71 76  0  0  0  0  0  0  0  0999 V2000
    5.1996   14.2913   10.8413 C   0  0  0  0  0  0  0  0  0  0  0  0
    4.6399   13.0300   11.0400 C   0  0  0  0  0  0  0  0  0  0  0  0
    5.3572   12.0968   11.7685 C   0  0  0  0  0  0  0  0  0  0  0  0
    6.5689   12.3351   12.3157 N   0  0  0  0  0  0  0  0  0  0  0  0
    7.0931   13.5734   12.1130 C   0  0  0  0  0  0  0  0  0  0  0  0
    6.4508   14.5700   11.3918 C   0  0  0  0  0  0  0  0  0  0  0  0
    8.4033   13.7978   12.7214 C   0  0  0  0  0  0  0  0  0  0  0  0
    8.9903   14.9674   12.9890 N   0  0  0  0  0  0  0  0  0  0  0  0
   10.1739   14.6242   13.5492 C   0  0  0  0  0  0  0  0  0  0  0  0
   10.3318   13.2800   13.6202 C   0  0  0  0  0  0  0  0  0  0  0  0
    9.2139   12.7328   13.1056 N   0  0  0  0  0  0  0  0  0  0  0  0
   11.5914   12.8495   14.2131 C   0  0  0  0  0  0  0  0  0  0  0  0
   12.2131   14.1809   14.4649 N   0  0  0  0  0  0  0  0  0  0  0  0
   13.2770   14.2497   15.3273 C   0  0  0  0  0  0  0  0  0  0  0  0
   13.6200   13.2718   15.9951 O   0  0  0  0  0  0  0  0  0  0  0  0
   13.9205   15.4554   15.4616 N   0  0  0  0  0  0  0  0  0  0  0  0
   14.5993   15.7430   16.7245 C   0  0  0  0  0  0  0  0  0  0  0  0
   15.2084   17.1624   16.7796 C   0  0  0  0  0  0  0  0  0  0  0  0
   14.3578   18.1537   16.1010 N   0  0  0  0  0  0  0  0  0  0  0  0
   14.8746   19.5087   16.2457 C   0  0  0  0  0  0  0  0  0  0  0  0
   14.1351   17.8025   14.6808 C   0  0  0  0  0  0  0  0  0  0  0  0
   14.3242   16.3069   14.3500 C   0  0  0  0  0  0  0  0  0  0  0  0
   11.3432   15.3425   14.0735 C   0  0  0  0  0  0  0  0  0  0  0  0
    8.9553   11.7606   12.9942 H   0  0  0  0  0  0  0  0  0  0  0  0
    4.5653   16.7398   10.0723 C   0  0  0  0  0  0  0  0  0  0  0  0
    3.7016   17.2392    9.1617 N   0  0  0  0  0  0  0  0  0  0  0  0
    3.0736   16.1665    8.6527 N   0  0  0  0  0  0  0  0  0  0  0  0
    3.5068   14.9865    9.1727 C   0  0  0  0  0  0  0  0  0  0  0  0
    4.4799   15.3074   10.0962 C   0  0  0  0  0  0  0  0  0  0  0  0
    9.0334   17.9980   11.4817 C   0  0  0  0  0  0  0  0  0  0  0  0
    7.5564   18.2403   11.5653 C   0  0  0  0  0  0  0  0  0  0  0  0
    7.0578   19.2463   12.3845 C   0  0  0  0  0  0  0  0  0  0  0  0
    5.6829   19.4391   12.4419 C   0  0  0  0  0  0  0  0  0  0  0  0
    4.8486   18.6230   11.6836 C   0  0  0  0  0  0  0  0  0  0  0  0
    5.4145   17.6346   10.8817 C   0  0  0  0  0  0  0  0  0  0  0  0
    6.7569   17.4436   10.8182 N   0  0  0  0  0  0  0  0  0  0  0  0
    2.0402   16.3338    7.6352 C   0  0  0  0  0  0  0  0  0  0  0  0
    0.6424   16.1401    8.2214 C   0  0  0  0  0  0  0  0  0  0  0  0
    2.1665   17.6816    6.9262 C   0  0  0  0  0  0  0  0  0  0  0  0
    3.7120   12.7974   10.6528 H   0  0  0  0  0  0  0  0  0  0  0  0
    4.9408   11.1620   11.9017 H   0  0  0  0  0  0  0  0  0  0  0  0
    6.8886   15.4960   11.2656 H   0  0  0  0  0  0  0  0  0  0  0  0
   12.1714   12.2603   13.5339 H   0  0  0  0  0  0  0  0  0  0  0  0
   11.4980   12.2206   15.0737 H   0  0  0  0  0  0  0  0  0  0  0  0
   15.3860   15.0301   16.8576 H   0  0  0  0  0  0  0  0  0  0  0  0
   13.8654   15.6819   17.5008 H   0  0  0  0  0  0  0  0  0  0  0  0
   16.1667   17.1459   16.3038 H   0  0  0  0  0  0  0  0  0  0  0  0
   15.2918   17.4468   17.8077 H   0  0  0  0  0  0  0  0  0  0  0  0
   15.0223   19.7252   17.2831 H   0  0  0  0  0  0  0  0  0  0  0  0
   14.1738   20.2037   15.8325 H   0  0  0  0  0  0  0  0  0  0  0  0
   15.8071   19.5920   15.7277 H   0  0  0  0  0  0  0  0  0  0  0  0
   14.8240   18.3653   14.0861 H   0  0  0  0  0  0  0  0  0  0  0  0
   13.1117   18.0322   14.4692 H   0  0  0  0  0  0  0  0  0  0  0  0
   15.3563   16.1274   14.1324 H   0  0  0  0  0  0  0  0  0  0  0  0
   13.7087   16.0706   13.5073 H   0  0  0  0  0  0  0  0  0  0  0  0
   11.8055   15.9490   13.3229 H   0  0  0  0  0  0  0  0  0  0  0  0
   11.1303   16.0312   14.8643 H   0  0  0  0  0  0  0  0  0  0  0  0
    3.1743   14.0412    8.9259 H   0  0  0  0  0  0  0  0  0  0  0  0
    9.5450   18.6911   12.1163 H   0  0  0  0  0  0  0  0  0  0  0  0
    9.3601   18.1312   10.4715 H   0  0  0  0  0  0  0  0  0  0  0  0
    9.2494   16.9988   11.7976 H   0  0  0  0  0  0  0  0  0  0  0  0
    7.6959   19.8382   12.9390 H   0  0  0  0  0  0  0  0  0  0  0  0
    5.2846   20.1795   13.0404 H   0  0  0  0  0  0  0  0  0  0  0  0
    3.8247   18.7484   11.7150 H   0  0  0  0  0  0  0  0  0  0  0  0
    2.1883   15.5703    6.9003 H   0  0  0  0  0  0  0  0  0  0  0  0
    0.4596   16.8895    8.9629 H   0  0  0  0  0  0  0  0  0  0  0  0
    0.5748   15.1709    8.6696 H   0  0  0  0  0  0  0  0  0  0  0  0
   -0.0860   16.2243    7.4421 H   0  0  0  0  0  0  0  0  0  0  0  0
    2.0235   18.4715    7.6336 H   0  0  0  0  0  0  0  0  0  0  0  0
    1.4244   17.7517    6.1585 H   0  0  0  0  0  0  0  0  0  0  0  0
    3.1400   17.7653    6.4900 H   0  0  0  0  0  0  0  0  0  0  0  0
  1  2  2  0
  2  3  1  0
  2 40  1  0
  3  4  2  0
  3 41  1  0
  4  5  1  0
  5  7  1  0
  5  6  2  0
  6  1  1  0
  6 42  1  0
  7  8  2  0
  8  9  1  0
  9 10  2  0
 10 11  1  0
 10 12  1  0
 11  7  1  0
 11 24  1  0
 12 13  1  0
 12 43  1  0
 12 44  1  0
 13 14  1  0
 13 23  1  0
 14 15  2  0
 14 16  1  0
 16 17  1  0
 17 18  1  0
 17 45  1  0
 17 46  1  0
 18 19  1  0
 18 47  1  0
 18 48  1  0
 19 20  1  0
 19 21  1  0
 20 49  1  0
 20 50  1  0
 20 51  1  0
 21 22  1  0
 21 52  1  0
 21 53  1  0
 22 16  1  0
 22 54  1  0
 22 55  1  0
 23  9  1  0
 23 56  1  0
 23 57  1  0
 25 26  2  0
 26 27  1  0
 27 37  1  0
 27 28  1  0
 28 29  2  0
 28 58  1  0
 29  1  1  0
 29 25  1  0
 30 31  1  0
 30 59  1  0
 30 60  1  0
 30 61  1  0
 31 32  2  0
 32 33  1  0
 32 62  1  0
 33 34  2  0
 33 63  1  0
 34 35  1  0
 34 64  1  0
 35 25  1  0
 35 36  2  0
 36 31  1  0
 37 38  1  0
 37 39  1  0
 37 65  1  0
 38 66  1  0
 38 67  1  0
 38 68  1  0
 39 69  1  0
 39 70  1  0
 39 71  1  0
M  END
>  <minimizedAffinity>  (4) 
-12.25355

>  <mol_id>  (4) 
50724

>  <source_index>  (4) 
3

>  <layer>  (4) 
L2

>  <uniprot>  (4) 
P36897

>  <paff>  (4) 
8.1249000000000002

>  <smiles>  (4) 
Cc1cccc(-c2nn(C(C)C)cc2-c2ccnc(-c3nc4c([nH]3)CN(C(=O)N3CCN(C)CC3)C4)c2)n1

$$$$
L2:P36897:77306
     RDKit          3D

 36 39  0  0  0  0  0  0  0  0999 V2000
    6.6511   14.7930   11.2209 N   0  0  0  0  0  0  0  0  0  0  0  0
    7.3549   13.7749   11.8116 N   0  0  0  0  0  0  0  0  0  0  0  0
    6.6919   12.6604   11.4966 C   0  0  0  0  0  0  0  0  0  0  0  0
    7.1644   11.3469   11.9958 C   0  0  0  0  0  0  0  0  0  0  0  0
    5.5802   12.9265   10.6792 C   0  0  0  0  0  0  0  0  0  0  0  0
    5.5784   14.2933   10.4845 C   0  0  0  0  0  0  0  0  0  0  0  0
    4.6597   15.0514    9.6867 C   0  0  0  0  0  0  0  0  0  0  0  0
    4.9378   16.1622    8.9206 C   0  0  0  0  0  0  0  0  0  0  0  0
    3.7834   16.6877    8.2487 C   0  0  0  0  0  0  0  0  0  0  0  0
    3.6384   17.8036    7.4099 C   0  0  0  0  0  0  0  0  0  0  0  0
    2.4393   18.1281    6.8727 N   0  0  0  0  0  0  0  0  0  0  0  0
    1.3714   17.3583    7.1558 C   0  0  0  0  0  0  0  0  0  0  0  0
    1.4044   16.2403    7.9682 C   0  0  0  0  0  0  0  0  0  0  0  0
    2.6508   15.9177    8.5174 C   0  0  0  0  0  0  0  0  0  0  0  0
    3.0200   14.5987    9.5605 S   0  0  0  0  0  0  0  0  0  0  0  0
    5.4413   19.3630   12.2928 C   0  0  0  0  0  0  0  0  0  0  0  0
    6.5040   18.3658   11.9409 C   0  0  0  0  0  0  0  0  0  0  0  0
    7.8302   18.7642   11.8302 C   0  0  0  0  0  0  0  0  0  0  0  0
    8.7883   17.8113   11.5049 C   0  0  0  0  0  0  0  0  0  0  0  0
    8.3989   16.4903   11.2998 C   0  0  0  0  0  0  0  0  0  0  0  0
    7.0502   16.1584   11.4238 C   0  0  0  0  0  0  0  0  0  0  0  0
    6.1095   17.0868   11.7402 N   0  0  0  0  0  0  0  0  0  0  0  0
    8.0397   11.4870   12.5951 H   0  0  0  0  0  0  0  0  0  0  0  0
    7.3980   10.7130   11.1660 H   0  0  0  0  0  0  0  0  0  0  0  0
    6.3966   10.8926   12.5865 H   0  0  0  0  0  0  0  0  0  0  0  0
    4.9054   12.2424   10.3027 H   0  0  0  0  0  0  0  0  0  0  0  0
    5.8803   16.5745    8.8382 H   0  0  0  0  0  0  0  0  0  0  0  0
    4.4622   18.3881    7.1986 H   0  0  0  0  0  0  0  0  0  0  0  0
    0.4655   17.6212    6.7372 H   0  0  0  0  0  0  0  0  0  0  0  0
    0.5607   15.6773    8.1584 H   0  0  0  0  0  0  0  0  0  0  0  0
    5.8862   20.3274   12.4231 H   0  0  0  0  0  0  0  0  0  0  0  0
    4.9606   19.0663   13.2015 H   0  0  0  0  0  0  0  0  0  0  0  0
    4.7186   19.4071   11.5049 H   0  0  0  0  0  0  0  0  0  0  0  0
    8.0987   19.7483   11.9864 H   0  0  0  0  0  0  0  0  0  0  0  0
    9.7805   18.0807   11.4161 H   0  0  0  0  0  0  0  0  0  0  0  0
    9.0968   15.7689   11.0600 H   0  0  0  0  0  0  0  0  0  0  0  0
  1  2  1  0
  2  3  2  0
  3  4  1  0
  3  5  1  0
  4 23  1  0
  4 24  1  0
  4 25  1  0
  5  6  2  0
  5 26  1  0
  6  7  1  0
  6  1  1  0
  7  8  2  0
  8  9  1  0
  8 27  1  0
  9 10  2  0
 10 11  1  0
 10 28  1  0
 11 12  2  0
 12 13  1  0
 12 29  1  0
 13 14  2  0
 13 30  1  0
 14 15  1  0
 14  9  1  0
 15  7  1  0
 16 17  1  0
 16 31  1  0
 16 32  1  0
 16 33  1  0
 17 18  2  0
 18 19  1  0
 18 34  1  0
 19 20  2  0
 19 35  1  0
 20 21  1  0
 20 36  1  0
 21  1  1  0
 21 22  2  0
 22 17  1  0
M  END
>  <minimizedAffinity>  (5) 
-9.93372

>  <mol_id>  (5) 
77306

>  <source_index>  (5) 
4

>  <layer>  (5) 
L2

>  <uniprot>  (5) 
P36897

>  <paff>  (5) 
7.0263999999999998

>  <smiles>  (5) 
Cc1cc(-c2cc3cnccc3s2)n(n1)-c1cccc(C)n1

$$$$
L2:P36897:93720
     RDKit          3D

 49 52  0  0  0  0  0  0  0  0999 V2000
    5.8655   17.8432   11.0294 C   0  0  0  0  0  0  0  0  0  0  0  0
    5.9481   19.2277   11.6057 C   0  0  0  0  0  0  0  0  0  0  0  0
    7.0706   19.5343   12.2678 C   0  0  0  0  0  0  0  0  0  0  0  0
    8.0865   18.5988   12.4003 N   0  0  0  0  0  0  0  0  0  0  0  0
    9.2722   18.7617   13.0352 N   0  0  0  0  0  0  0  0  0  0  0  0
    9.8794   17.5854   12.8860 C   0  0  0  0  0  0  0  0  0  0  0  0
    9.1227   16.6413   12.1575 C   0  0  0  0  0  0  0  0  0  0  0  0
    7.9566   17.3236   11.8492 C   0  0  0  0  0  0  0  0  0  0  0  0
    6.8318   16.9635   11.1585 N   0  0  0  0  0  0  0  0  0  0  0  0
    9.4623   15.2906   11.8126 C   0  0  0  0  0  0  0  0  0  0  0  0
    9.1820   14.6977   10.6882 N   0  0  0  0  0  0  0  0  0  0  0  0
    9.7214   13.3653   10.8029 O   0  0  0  0  0  0  0  0  0  0  0  0
   10.3519   13.2548   12.0979 C   0  0  0  0  0  0  0  0  0  0  0  0
   11.8381   12.9940   11.9058 C   0  0  0  0  0  0  0  0  0  0  0  0
    9.6678   12.1533   12.8924 C   0  0  0  0  0  0  0  0  0  0  0  0
   10.1336   14.5324   12.7088 N   0  0  0  0  0  0  0  0  0  0  0  0
   10.5077   14.8091   13.5981 H   0  0  0  0  0  0  0  0  0  0  0  0
    4.7787   17.4031   10.3312 N   0  0  0  0  0  0  0  0  0  0  0  0
    3.8911   17.7260   10.7120 H   0  0  0  0  0  0  0  0  0  0  0  0
    4.6987   16.7658    9.0394 C   0  0  2  0  0  0  0  0  0  0  0  0
    5.2861   17.6747    7.9601 C   0  0  0  0  0  0  0  0  0  0  0  0
    2.6059   15.2730    9.3181 C   0  0  0  0  0  0  0  0  0  0  0  0
    1.2729   14.9863    8.9928 C   0  0  0  0  0  0  0  0  0  0  0  0
    0.5833   15.7791    8.0741 C   0  0  0  0  0  0  0  0  0  0  0  0
    1.2240   16.8573    7.4844 C   0  0  0  0  0  0  0  0  0  0  0  0
    0.5619   17.6196    6.6048 F   0  0  0  0  0  0  0  0  0  0  0  0
    2.5429   17.1627    7.7974 C   0  0  0  0  0  0  0  0  0  0  0  0
    3.2582   16.3768    8.7213 C   0  0  0  0  0  0  0  0  0  0  0  0
    3.5967   13.1766    9.8992 C   0  0  0  0  0  0  0  0  0  0  0  0
    3.3487   14.5432   10.2090 O   0  0  0  0  0  0  0  0  0  0  0  0
    5.1793   19.9075   11.4969 H   0  0  0  0  0  0  0  0  0  0  0  0
    7.1809   20.4729   12.6824 H   0  0  0  0  0  0  0  0  0  0  0  0
   10.8166   17.3826   13.2677 H   0  0  0  0  0  0  0  0  0  0  0  0
   11.9760   12.0363   11.4490 H   0  0  0  0  0  0  0  0  0  0  0  0
   12.3288   13.0097   12.8565 H   0  0  0  0  0  0  0  0  0  0  0  0
   12.2549   13.7525   11.2767 H   0  0  0  0  0  0  0  0  0  0  0  0
    9.8438   11.2101   12.4189 H   0  0  0  0  0  0  0  0  0  0  0  0
    8.6153   12.3422   12.9308 H   0  0  0  0  0  0  0  0  0  0  0  0
   10.0629   12.1326   13.8866 H   0  0  0  0  0  0  0  0  0  0  0  0
    5.2789   15.8670    9.0615 H   0  0  0  0  0  0  0  0  0  0  0  0
    4.7242   18.5842    7.9151 H   0  0  0  0  0  0  0  0  0  0  0  0
    5.2397   17.1795    7.0127 H   0  0  0  0  0  0  0  0  0  0  0  0
    6.3057   17.8967    8.1969 H   0  0  0  0  0  0  0  0  0  0  0  0
    0.7983   14.1839    9.4354 H   0  0  0  0  0  0  0  0  0  0  0  0
   -0.3974   15.5638    7.8355 H   0  0  0  0  0  0  0  0  0  0  0  0
    3.0016   17.9714    7.3495 H   0  0  0  0  0  0  0  0  0  0  0  0
    4.1841   12.7354   10.6772 H   0  0  0  0  0  0  0  0  0  0  0  0
    4.1265   13.1116    8.9718 H   0  0  0  0  0  0  0  0  0  0  0  0
    2.6660   12.6552    9.8157 H   0  0  0  0  0  0  0  0  0  0  0  0
  1  2  1  0
  2  3  2  0
  2 31  1  0
  3  4  1  0
  3 32  1  0
  4  5  1  0
  5  6  2  0
  6  7  1  0
  6 33  1  0
  7 10  1  0
  7  8  2  0
  8  9  1  0
  8  4  1  0
  9  1  2  0
 10 11  2  0
 11 12  1  0
 12 13  1  0
 13 14  1  0
 13 15  1  0
 13 16  1  0
 14 34  1  0
 14 35  1  0
 14 36  1  0
 15 37  1  0
 15 38  1  0
 15 39  1  0
 16 10  1  0
 16 17  1  0
 18  1  1  0
 18 19  1  0
 20 21  1  0
 20 18  1  0
 20 40  1  1
 21 41  1  0
 21 42  1  0
 21 43  1  0
 22 23  2  0
 23 24  1  0
 23 44  1  0
 24 25  2  0
 24 45  1  0
 25 26  1  0
 25 27  1  0
 27 28  2  0
 27 46  1  0
 28 20  1  0
 28 22  1  0
 29 30  1  0
 29 47  1  0
 29 48  1  0
 29 49  1  0
 30 22  1  0
M  END
>  <minimizedAffinity>  (6) 
-9.28992

>  <mol_id>  (6) 
93720

>  <source_index>  (6) 
5

>  <layer>  (6) 
L2

>  <uniprot>  (6) 
P36897

>  <paff>  (6) 
7.3010000000000002

>  <smiles>  (6) 
COc1ccc(F)cc1[C@@H](C)Nc1ccn2ncc(C3=NOC(C)(C)N3)c2n1

$$$$
L2:P36897:102780
     RDKit          3D

 60 64  0  0  0  0  0  0  0  0999 V2000
    7.4800   18.0051   11.7049 C   0  0  0  0  0  0  0  0  0  0  0  0
    7.0291   16.7905   11.1838 C   0  0  0  0  0  0  0  0  0  0  0  0
    5.6556   16.5579   10.9904 C   0  0  0  0  0  0  0  0  0  0  0  0
    4.7332   17.5615   11.3182 C   0  0  0  0  0  0  0  0  0  0  0  0
    5.1735   18.7820   11.8270 C   0  0  0  0  0  0  0  0  0  0  0  0
    6.5350   18.9905   12.0149 C   0  0  0  0  0  0  0  0  0  0  0  0
    6.9479   20.1666   12.5152 F   0  0  0  0  0  0  0  0  0  0  0  0
    5.1938   15.2709   10.4837 C   0  0  0  0  0  0  0  0  0  0  0  0
    4.2299   14.9062    9.5340 C   0  0  0  0  0  0  0  0  0  0  0  0
    4.1174   13.5280    9.4055 N   0  0  0  0  0  0  0  0  0  0  0  0
    4.9645   13.0664   10.2738 C   0  0  0  0  0  0  0  0  0  0  0  0
    5.6243   14.0606   10.9213 N   0  0  0  0  0  0  0  0  0  0  0  0
    6.5181   13.5576   11.9431 C   0  0  0  0  0  0  0  0  0  0  0  0
    6.2715   12.0335   11.8431 C   0  0  0  0  0  0  0  0  0  0  0  0
    5.3418   11.8724   10.7323 N   0  0  0  0  0  0  0  0  0  0  0  0
    4.9293   10.9906   10.4566 H   0  0  0  0  0  0  0  0  0  0  0  0
    3.4282   15.8211    8.7470 C   0  0  0  0  0  0  0  0  0  0  0  0
    2.0311   15.8279    8.8658 C   0  0  0  0  0  0  0  0  0  0  0  0
    1.2700   16.7003    8.0869 C   0  0  0  0  0  0  0  0  0  0  0  0
   -0.4455   16.6893    8.2263 Cl  0  0  0  0  0  0  0  0  0  0  0  0
    1.8843   17.5777    7.1938 C   0  0  0  0  0  0  0  0  0  0  0  0
    3.2743   17.5815    7.0788 C   0  0  0  0  0  0  0  0  0  0  0  0
    4.0369   16.7080    7.8533 C   0  0  0  0  0  0  0  0  0  0  0  0
    5.3689   16.7233    7.6949 F   0  0  0  0  0  0  0  0  0  0  0  0
    9.4808   16.6252   13.4213 O   0  0  0  0  0  0  0  0  0  0  0  0
    9.7201   17.6377   12.7729 C   0  0  0  0  0  0  0  0  0  0  0  0
    8.8342   18.3165   11.9578 N   0  0  0  0  0  0  0  0  0  0  0  0
    9.1726   19.1473   11.4818 H   0  0  0  0  0  0  0  0  0  0  0  0
   11.0799   18.3026   12.8405 C   0  0  0  0  0  0  0  0  0  0  0  0
   12.0495   17.3868   13.5897 C   0  0  0  0  0  0  0  0  0  0  0  0
   13.4215   17.9190   13.6580 N   0  0  0  0  0  0  0  0  0  0  0  0
   14.1732   17.3381   14.7842 C   0  0  0  0  0  0  0  0  0  0  0  0
   14.2539   18.2540   16.0030 C   0  0  0  0  0  0  0  0  0  0  0  0
   14.9378   19.5766   15.6614 C   0  0  0  0  0  0  0  0  0  0  0  0
   14.7598   19.9575   14.1929 C   0  0  0  0  0  0  0  0  0  0  0  0
   13.4595   19.3901   13.6264 C   0  0  0  0  0  0  0  0  0  0  0  0
    7.7109   16.0558   10.9380 H   0  0  0  0  0  0  0  0  0  0  0  0
    3.7237   17.3958   11.1821 H   0  0  0  0  0  0  0  0  0  0  0  0
    4.4955   19.5237   12.0620 H   0  0  0  0  0  0  0  0  0  0  0  0
    6.2573   13.9334   12.9104 H   0  0  0  0  0  0  0  0  0  0  0  0
    7.5402   13.8445   11.8093 H   0  0  0  0  0  0  0  0  0  0  0  0
    5.8417   11.6621   12.7498 H   0  0  0  0  0  0  0  0  0  0  0  0
    7.1797   11.4893   11.6884 H   0  0  0  0  0  0  0  0  0  0  0  0
    1.5661   15.1882    9.5288 H   0  0  0  0  0  0  0  0  0  0  0  0
    1.3141   18.2200    6.6217 H   0  0  0  0  0  0  0  0  0  0  0  0
    3.7372   18.2292    6.4221 H   0  0  0  0  0  0  0  0  0  0  0  0
   10.9969   19.2358   13.3574 H   0  0  0  0  0  0  0  0  0  0  0  0
   11.4440   18.4791   11.8499 H   0  0  0  0  0  0  0  0  0  0  0  0
   12.0770   16.4408   13.0905 H   0  0  0  0  0  0  0  0  0  0  0  0
   11.6925   17.3031   14.5949 H   0  0  0  0  0  0  0  0  0  0  0  0
   15.1686   17.1270   14.4533 H   0  0  0  0  0  0  0  0  0  0  0  0
   13.6497   16.4561   15.0889 H   0  0  0  0  0  0  0  0  0  0  0  0
   14.8119   17.7619   16.7720 H   0  0  0  0  0  0  0  0  0  0  0  0
   13.2580   18.4649   16.3325 H   0  0  0  0  0  0  0  0  0  0  0  0
   15.9835   19.4873   15.8696 H   0  0  0  0  0  0  0  0  0  0  0  0
   14.4856   20.3427   16.2560 H   0  0  0  0  0  0  0  0  0  0  0  0
   15.5834   19.5705   13.6301 H   0  0  0  0  0  0  0  0  0  0  0  0
   14.7217   21.0245   14.1228 H   0  0  0  0  0  0  0  0  0  0  0  0
   13.3581   19.7136   12.6115 H   0  0  0  0  0  0  0  0  0  0  0  0
   12.6571   19.7478   14.2372 H   0  0  0  0  0  0  0  0  0  0  0  0
  1  2  2  0
  2  3  1  0
  2 37  1  0
  3  8  1  0
  3  4  2  0
  4  5  1  0
  4 38  1  0
  5  6  2  0
  5 39  1  0
  6  7  1  0
  6  1  1  0
  8  9  2  0
  9 17  1  0
  9 10  1  0
 10 11  2  0
 11 12  1  0
 12 13  1  0
 12  8  1  0
 13 14  1  0
 13 40  1  0
 13 41  1  0
 14 15  1  0
 14 42  1  0
 14 43  1  0
 15 11  1  0
 15 16  1  0
 17 18  2  0
 18 19  1  0
 18 44  1  0
 19 20  1  0
 19 21  2  0
 21 22  1  0
 21 45  1  0
 22 23  2  0
 22 46  1  0
 23 24  1  0
 23 17  1  0
 25 26  2  0
 26 29  1  0
 26 27  1  0
 27  1  1  0
 27 28  1  0
 29 30  1  0
 29 47  1  0
 29 48  1  0
 30 31  1  0
 30 49  1  0
 30 50  1  0
 31 32  1  0
 32 33  1  0
 32 51  1  0
 32 52  1  0
 33 34  1  0
 33 53  1  0
 33 54  1  0
 34 35  1  0
 34 55  1  0
 34 56  1  0
 35 36  1  0
 35 57  1  0
 35 58  1  0
 36 31  1  0
 36 59  1  0
 36 60  1  0
M  END
>  <minimizedAffinity>  (7) 
-10.71468

>  <mol_id>  (7) 
102780

>  <source_index>  (7) 
6

>  <layer>  (7) 
L2

>  <uniprot>  (7) 
P36897

>  <paff>  (7) 
9

>  <smiles>  (7) 
O=C(CCN1CCCCC1)Nc1cc(-c2c(-c3cc(Cl)ccc3F)nc3n2CCN3)ccc1F

$$$$
L2:P36897:105371
     RDKit          3D

 56 60  0  0  0  0  0  0  0  0999 V2000
    7.8966   14.0531   11.0870 N   0  0  0  0  0  0  0  0  0  0  0  0
    6.7030   13.7301   10.5216 C   0  0  0  0  0  0  0  0  0  0  0  0
    5.9344   14.8716   10.5889 C   0  0  0  0  0  0  0  0  0  0  0  0
    6.7557   15.8560   11.2259 C   0  0  0  0  0  0  0  0  0  0  0  0
    7.9672   15.3311   11.5137 N   0  0  0  0  0  0  0  0  0  0  0  0
    4.5792   14.9322   10.0715 C   0  0  0  0  0  0  0  0  0  0  0  0
    3.6486   14.0218   10.5719 C   0  0  0  0  0  0  0  0  0  0  0  0
    2.3612   14.0768   10.0833 C   0  0  0  0  0  0  0  0  0  0  0  0
    1.9499   14.9545    9.1459 N   0  0  0  0  0  0  0  0  0  0  0  0
    2.8438   15.8364    8.6659 C   0  0  0  0  0  0  0  0  0  0  0  0
    2.4171   16.7432    7.7044 C   0  0  0  0  0  0  0  0  0  0  0  0
    3.2762   17.6929    7.1469 C   0  0  0  0  0  0  0  0  0  0  0  0
    4.6005   17.7442    7.5556 C   0  0  0  0  0  0  0  0  0  0  0  0
    5.0559   16.8451    8.5184 C   0  0  0  0  0  0  0  0  0  0  0  0
    4.1899   15.8783    9.0907 C   0  0  0  0  0  0  0  0  0  0  0  0
    6.4185   17.2512   11.5564 C   0  0  0  0  0  0  0  0  0  0  0  0
    5.1019   17.6287   11.8148 C   0  0  0  0  0  0  0  0  0  0  0  0
    4.8294   18.9587   12.1279 C   0  0  0  0  0  0  0  0  0  0  0  0
    5.8734   19.8737   12.1749 C   0  0  0  0  0  0  0  0  0  0  0  0
    7.1521   19.4196   11.9024 C   0  0  0  0  0  0  0  0  0  0  0  0
    7.4438   18.1384   11.5919 N   0  0  0  0  0  0  0  0  0  0  0  0
    9.0444   13.1816   11.2540 C   0  0  0  0  0  0  0  0  0  0  0  0
   10.5844   14.6536   12.4425 N   0  0  0  0  0  0  0  0  0  0  0  0
    9.8261   13.5082   12.5073 C   0  0  0  0  0  0  0  0  0  0  0  0
    9.8243   12.7561   13.4803 O   0  0  0  0  0  0  0  0  0  0  0  0
   10.5196   15.2307   11.6057 H   0  0  0  0  0  0  0  0  0  0  0  0
   11.4641   15.0805   13.5029 C   0  0  0  0  0  0  0  0  0  0  0  0
   12.2069   20.8519   13.2884 C   0  0  0  0  0  0  0  0  0  0  0  0
   12.0038   19.3683   13.3733 C   0  0  0  0  0  0  0  0  0  0  0  0
   13.0579   18.5294   13.7512 C   0  0  0  0  0  0  0  0  0  0  0  0
   12.8782   17.1453   13.8006 C   0  0  0  0  0  0  0  0  0  0  0  0
   11.6419   16.5750   13.4698 C   0  0  0  0  0  0  0  0  0  0  0  0
   10.5952   17.4141   13.0668 C   0  0  0  0  0  0  0  0  0  0  0  0
   10.7759   18.7988   13.0179 C   0  0  0  0  0  0  0  0  0  0  0  0
    6.4292   12.8180   10.1240 H   0  0  0  0  0  0  0  0  0  0  0  0
    3.9162   13.3275   11.2870 H   0  0  0  0  0  0  0  0  0  0  0  0
    1.6711   13.4066   10.4569 H   0  0  0  0  0  0  0  0  0  0  0  0
    1.4340   16.7144    7.3919 H   0  0  0  0  0  0  0  0  0  0  0  0
    2.9273   18.3531    6.4345 H   0  0  0  0  0  0  0  0  0  0  0  0
    5.2434   18.4423    7.1502 H   0  0  0  0  0  0  0  0  0  0  0  0
    6.0419   16.8835    8.8207 H   0  0  0  0  0  0  0  0  0  0  0  0
    4.3403   16.9335   11.7748 H   0  0  0  0  0  0  0  0  0  0  0  0
    3.8621   19.2608   12.3228 H   0  0  0  0  0  0  0  0  0  0  0  0
    5.7004   20.8644   12.4065 H   0  0  0  0  0  0  0  0  0  0  0  0
    7.9275   20.0997   11.9386 H   0  0  0  0  0  0  0  0  0  0  0  0
    8.7036   12.1691   11.3134 H   0  0  0  0  0  0  0  0  0  0  0  0
    9.6920   13.3233   10.4141 H   0  0  0  0  0  0  0  0  0  0  0  0
   11.0438   14.7965   14.4450 H   0  0  0  0  0  0  0  0  0  0  0  0
   12.4183   14.6151   13.3698 H   0  0  0  0  0  0  0  0  0  0  0  0
   13.2018   21.0940   13.5990 H   0  0  0  0  0  0  0  0  0  0  0  0
   11.5039   21.3452   13.9267 H   0  0  0  0  0  0  0  0  0  0  0  0
   12.0599   21.1748   12.2789 H   0  0  0  0  0  0  0  0  0  0  0  0
   13.9744   18.9362   13.9951 H   0  0  0  0  0  0  0  0  0  0  0  0
   13.6628   16.5374   14.0832 H   0  0  0  0  0  0  0  0  0  0  0  0
    9.6841   17.0067   12.8041 H   0  0  0  0  0  0  0  0  0  0  0  0
    9.9977   19.4063   12.7173 H   0  0  0  0  0  0  0  0  0  0  0  0
  1  2  1  0
  2  3  2  0
  2 35  1  0
  3  6  1  0
  3  4  1  0
  4 16  1  0
  4  5  2  0
  5  1  1  0
  6  7  2  0
  7  8  1  0
  7 36  1  0
  8  9  2  0
  8 37  1  0
  9 10  1  0
 10 11  2  0
 11 12  1  0
 11 38  1  0
 12 13  2  0
 12 39  1  0
 13 14  1  0
 13 40  1  0
 14 15  2  0
 14 41  1  0
 15  6  1  0
 15 10  1  0
 16 17  2  0
 17 18  1  0
 17 42  1  0
 18 19  2  0
 18 43  1  0
 19 20  1  0
 19 44  1  0
 20 21  2  0
 20 45  1  0
 21 16  1  0
 22  1  1  0
 22 46  1  0
 22 47  1  0
 23 24  1  0
 23 26  1  0
 24 25  2  0
 24 22  1  0
 27 23  1  0
 27 48  1  0
 27 49  1  0
 28 29  1  0
 28 50  1  0
 28 51  1  0
 28 52  1  0
 29 30  2  0
 30 31  1  0
 30 53  1  0
 31 32  2  0
 31 54  1  0
 32 27  1  0
 32 33  1  0
 33 34  2  0
 33 55  1  0
 34 29  1  0
 34 56  1  0
M  END
>  <minimizedAffinity>  (8) 
-10.94525

>  <mol_id>  (8) 
105371

>  <source_index>  (8) 
7

>  <layer>  (8) 
L2

>  <uniprot>  (8) 
P36897

>  <paff>  (8) 
6.3468

>  <smiles>  (8) 
Cc1ccc(CNC(=O)Cn2cc(-c3ccnc4ccccc34)c(-c3ccccn3)n2)cc1

$$$$
L2:P36897:108760
     RDKit          3D

 57 62  0  0  0  0  0  0  0  0999 V2000
    6.2788   16.7940   11.1538 C   0  0  0  0  0  0  0  0  0  0  0  0
    5.3305   17.7860   11.4018 C   0  0  0  0  0  0  0  0  0  0  0  0
    5.7453   18.9768   11.9745 C   0  0  0  0  0  0  0  0  0  0  0  0
    7.0212   19.2389   12.3312 N   0  0  0  0  0  0  0  0  0  0  0  0
    7.9294   18.2583   12.0862 C   0  0  0  0  0  0  0  0  0  0  0  0
    7.6065   17.0381   11.5068 C   0  0  0  0  0  0  0  0  0  0  0  0
    9.2991   18.5655   12.4924 C   0  0  0  0  0  0  0  0  0  0  0  0
   10.2863   17.7031   12.7450 N   0  0  0  0  0  0  0  0  0  0  0  0
   11.3370   18.4890   13.0799 C   0  0  0  0  0  0  0  0  0  0  0  0
   11.0174   19.8054   13.0426 C   0  0  0  0  0  0  0  0  0  0  0  0
    9.7243   19.8786   12.6723 N   0  0  0  0  0  0  0  0  0  0  0  0
   12.1133   20.7014   13.3906 C   0  0  0  0  0  0  0  0  0  0  0  0
   13.1787   19.6999   13.6771 N   0  0  0  0  0  0  0  0  0  0  0  0
   14.4160   19.8930   14.2254 C   0  0  0  0  0  0  0  0  0  0  0  0
   15.0810   18.9206   14.5986 O   0  0  0  0  0  0  0  0  0  0  0  0
   14.9210   21.1570   14.3761 N   0  0  0  0  0  0  0  0  0  0  0  0
   14.5138   22.4168   13.7738 C   0  0  0  0  0  0  0  0  0  0  0  0
   15.6949   23.3571   13.9849 C   0  0  0  0  0  0  0  0  0  0  0  0
   16.3158   22.8364   15.2705 C   0  0  0  0  0  0  0  0  0  0  0  0
   16.1616   21.3324   15.1188 C   0  0  0  0  0  0  0  0  0  0  0  0
   12.7317   18.2779   13.4847 C   0  0  0  0  0  0  0  0  0  0  0  0
    9.1277   20.6845   12.5354 H   0  0  0  0  0  0  0  0  0  0  0  0
    4.9605   15.1166    9.6125 C   0  0  0  0  0  0  0  0  0  0  0  0
    4.9610   13.7335    9.4858 N   0  0  0  0  0  0  0  0  0  0  0  0
    5.8772   13.3004   10.3154 C   0  0  0  0  0  0  0  0  0  0  0  0
    6.4687   14.3298   10.9819 N   0  0  0  0  0  0  0  0  0  0  0  0
    5.8881   15.5125   10.5730 C   0  0  0  0  0  0  0  0  0  0  0  0
    7.1936   14.2423   11.6800 H   0  0  0  0  0  0  0  0  0  0  0  0
    0.4631   16.3002    8.2272 C   0  0  0  0  0  0  0  0  0  0  0  0
    1.9379   16.5497    8.1286 C   0  0  0  0  0  0  0  0  0  0  0  0
    2.4223   17.5652    7.3120 C   0  0  0  0  0  0  0  0  0  0  0  0
    3.7947   17.7733    7.2501 C   0  0  0  0  0  0  0  0  0  0  0  0
    4.6401   16.9650    8.0041 C   0  0  0  0  0  0  0  0  0  0  0  0
    4.0877   15.9638    8.7979 C   0  0  0  0  0  0  0  0  0  0  0  0
    2.7493   15.7522    8.8623 N   0  0  0  0  0  0  0  0  0  0  0  0
    4.3379   17.6355   11.1630 H   0  0  0  0  0  0  0  0  0  0  0  0
    5.0362   19.7084   12.1387 H   0  0  0  0  0  0  0  0  0  0  0  0
    8.3345   16.3257   11.3406 H   0  0  0  0  0  0  0  0  0  0  0  0
   11.8839   21.2953   14.2505 H   0  0  0  0  0  0  0  0  0  0  0  0
   12.3616   21.4246   12.6421 H   0  0  0  0  0  0  0  0  0  0  0  0
   13.6386   22.7986   14.2566 H   0  0  0  0  0  0  0  0  0  0  0  0
   14.2695   22.3058   12.7380 H   0  0  0  0  0  0  0  0  0  0  0  0
   15.3662   24.3690   14.0982 H   0  0  0  0  0  0  0  0  0  0  0  0
   16.3772   23.3710   13.1608 H   0  0  0  0  0  0  0  0  0  0  0  0
   15.7876   23.1954   16.1290 H   0  0  0  0  0  0  0  0  0  0  0  0
   17.3283   23.1508   15.4152 H   0  0  0  0  0  0  0  0  0  0  0  0
   16.0964   20.8619   16.0776 H   0  0  0  0  0  0  0  0  0  0  0  0
   16.9973   20.8898   14.6182 H   0  0  0  0  0  0  0  0  0  0  0  0
   12.7988   17.7163   14.3930 H   0  0  0  0  0  0  0  0  0  0  0  0
   13.3183   17.7163   12.7880 H   0  0  0  0  0  0  0  0  0  0  0  0
    6.1198   12.3060   10.4471 H   0  0  0  0  0  0  0  0  0  0  0  0
   -0.0587   16.9946    7.6023 H   0  0  0  0  0  0  0  0  0  0  0  0
    0.1471   16.4261    9.2417 H   0  0  0  0  0  0  0  0  0  0  0  0
    0.2481   15.3018    7.9079 H   0  0  0  0  0  0  0  0  0  0  0  0
    1.7755   18.1527    6.7628 H   0  0  0  0  0  0  0  0  0  0  0  0
    4.1828   18.5191    6.6516 H   0  0  0  0  0  0  0  0  0  0  0  0
    5.6620   17.1058    7.9752 H   0  0  0  0  0  0  0  0  0  0  0  0
  1  2  2  0
  2  3  1  0
  2 36  1  0
  3  4  2  0
  3 37  1  0
  4  5  1  0
  5  7  1  0
  5  6  2  0
  6  1  1  0
  6 38  1  0
  7  8  2  0
  8  9  1  0
  9 10  2  0
 10 11  1  0
 10 12  1  0
 11  7  1  0
 11 22  1  0
 12 13  1  0
 12 39  1  0
 12 40  1  0
 13 14  1  0
 13 21  1  0
 14 15  2  0
 14 16  1  0
 16 17  1  0
 17 18  1  0
 17 41  1  0
 17 42  1  0
 18 19  1  0
 18 43  1  0
 18 44  1  0
 19 20  1  0
 19 45  1  0
 19 46  1  0
 20 16  1  0
 20 47  1  0
 20 48  1  0
 21  9  1  0
 21 49  1  0
 21 50  1  0
 23 24  1  0
 24 25  2  0
 25 26  1  0
 25 51  1  0
 26 27  1  0
 26 28  1  0
 27  1  1  0
 27 23  2  0
 29 30  1  0
 29 52  1  0
 29 53  1  0
 29 54  1  0
 30 31  2  0
 31 32  1  0
 31 55  1  0
 32 33  2  0
 32 56  1  0
 33 34  1  0
 33 57  1  0
 34 23  1  0
 34 35  2  0
 35 30  1  0
M  END
>  <minimizedAffinity>  (9) 
-11.45037

>  <mol_id>  (9) 
108760

>  <source_index>  (9) 
8

>  <layer>  (9) 
L2

>  <uniprot>  (9) 
P36897

>  <paff>  (9) 
7.6576000000000004

>  <smiles>  (9) 
Cc1cccc(-c2nc[nH]c2-c2ccnc(-c3nc4c([nH]3)CN(C(=O)N3CCCC3)C4)c2)n1

$$$$
L2:P36897:109621
     RDKit          3D

 42 47  0  0  0  0  0  0  0  0999 V2000
    4.5690   15.1039    9.4826 C   0  0  0  0  0  0  0  0  0  0  0  0
    4.5312   13.7111    9.3061 N   0  0  0  0  0  0  0  0  0  0  0  0
    5.3800   13.2708   10.1843 C   0  0  0  0  0  0  0  0  0  0  0  0
    5.9552   14.2656   10.9064 N   0  0  0  0  0  0  0  0  0  0  0  0
    5.4803   15.4657   10.4887 C   0  0  0  0  0  0  0  0  0  0  0  0
    6.9380   13.7943   11.8633 C   0  0  0  0  0  0  0  0  0  0  0  0
    6.9550   12.2743   11.6617 C   0  0  1  0  0  0  0  0  0  0  0  0
    5.7726   11.4027   12.0047 C   0  0  0  0  0  0  0  0  0  0  0  0
    5.9227   11.8928   10.5918 C   0  0  1  0  0  0  0  0  0  0  0  0
    5.9339   16.7381   11.0360 C   0  0  0  0  0  0  0  0  0  0  0  0
    4.9988   17.7197   11.3976 C   0  0  0  0  0  0  0  0  0  0  0  0
    5.4051   18.9426   11.9525 C   0  0  0  0  0  0  0  0  0  0  0  0
    6.7746   19.1737   12.1388 C   0  0  0  0  0  0  0  0  0  0  0  0
    7.4212   20.2712   12.6543 N   0  0  0  0  0  0  0  0  0  0  0  0
    8.6999   19.9776   12.5915 C   0  0  0  0  0  0  0  0  0  0  0  0
    8.9084   18.7354   12.0622 N   0  0  0  0  0  0  0  0  0  0  0  0
    7.6853   18.1907   11.7691 C   0  0  0  0  0  0  0  0  0  0  0  0
    7.3082   16.9628   11.2199 C   0  0  0  0  0  0  0  0  0  0  0  0
    9.8042   18.2962   11.9087 H   0  0  0  0  0  0  0  0  0  0  0  0
    0.1179   16.4720    8.1272 C   0  0  0  0  0  0  0  0  0  0  0  0
    1.6002   16.6683    8.0233 C   0  0  0  0  0  0  0  0  0  0  0  0
    2.1213   17.6484    7.1865 C   0  0  0  0  0  0  0  0  0  0  0  0
    3.5012   17.7959    7.1115 C   0  0  0  0  0  0  0  0  0  0  0  0
    4.3172   16.9612    7.8695 C   0  0  0  0  0  0  0  0  0  0  0  0
    3.7281   16.0011    8.6867 C   0  0  0  0  0  0  0  0  0  0  0  0
    2.3825   15.8551    8.7692 N   0  0  0  0  0  0  0  0  0  0  0  0
    6.6451   14.0420   12.8622 H   0  0  0  0  0  0  0  0  0  0  0  0
    7.9001   14.2393   11.7177 H   0  0  0  0  0  0  0  0  0  0  0  0
    7.9915   12.1578   11.9006 H   0  0  0  0  0  0  0  0  0  0  0  0
    4.9881   11.7896   12.6210 H   0  0  0  0  0  0  0  0  0  0  0  0
    5.6579   10.4389   12.4552 H   0  0  0  0  0  0  0  0  0  0  0  0
    5.7772   11.3491    9.6818 H   0  0  0  0  0  0  0  0  0  0  0  0
    3.9932   17.5388   11.2527 H   0  0  0  0  0  0  0  0  0  0  0  0
    4.7096   19.6573   12.2180 H   0  0  0  0  0  0  0  0  0  0  0  0
    9.4548   20.6081   12.9038 H   0  0  0  0  0  0  0  0  0  0  0  0
    8.0093   16.2513   10.9604 H   0  0  0  0  0  0  0  0  0  0  0  0
   -0.3803   17.1739    7.4915 H   0  0  0  0  0  0  0  0  0  0  0  0
   -0.1921   16.6254    9.1398 H   0  0  0  0  0  0  0  0  0  0  0  0
   -0.1322   15.4766    7.8245 H   0  0  0  0  0  0  0  0  0  0  0  0
    1.4962   18.2542    6.6322 H   0  0  0  0  0  0  0  0  0  0  0  0
    3.9163   18.5165    6.5004 H   0  0  0  0  0  0  0  0  0  0  0  0
    5.3442   17.0529    7.8262 H   0  0  0  0  0  0  0  0  0  0  0  0
  1  2  1  0
  2  3  2  0
  3  4  1  0
  4  5  1  0
  4  6  1  0
  5 10  1  0
  5  1  2  0
  6  7  1  0
  6 27  1  0
  6 28  1  0
  7  8  1  0
  7 29  1  6
  8  9  1  0
  8 30  1  0
  8 31  1  0
  9  7  1  0
  9  3  1  0
  9 32  1  6
 10 11  2  0
 11 12  1  0
 11 33  1  0
 12 13  2  0
 12 34  1  0
 13 14  1  0
 14 15  2  0
 15 16  1  0
 15 35  1  0
 16 17  1  0
 16 19  1  0
 17 18  2  0
 17 13  1  0
 18 10  1  0
 18 36  1  0
 20 21  1  0
 20 37  1  0
 20 38  1  0
 20 39  1  0
 21 22  2  0
 22 23  1  0
 22 40  1  0
 23 24  2  0
 23 41  1  0
 24 25  1  0
 24 42  1  0
 25  1  1  0
 25 26  2  0
 26 21  1  0
M  END
>  <minimizedAffinity>  (10) 
-10.84134

>  <mol_id>  (10) 
109621

>  <source_index>  (10) 
9

>  <layer>  (10) 
L2

>  <uniprot>  (10) 
P36897

>  <paff>  (10) 
7.9207999999999998

>  <smiles>  (10) 
Cc1cccc(-c2nc3n(c2-c2ccc4nc[nH]c4c2)CC2CC32)n1

$$$$
