L3:Q15878:107192


 22 23  0  0  0  0  0  0  0  0999 V2000
  142.7273  174.5228  161.0737 N   0  0  0  0  0  0  0  0  0  0  0  0
  143.0644  174.2547  159.6518 C   0  0  0  0  0  0  0  0  0  0  0  0
  143.6032  175.8347  161.7229 S   0  0  0  0  0  0  0  0  0  0  0  0
  143.2537  175.9446  163.1243 O   0  0  0  0  0  0  0  0  0  0  0  0
  143.4451  176.9763  160.8486 O   0  0  0  0  0  0  0  0  0  0  0  0
  145.2856  175.3349  161.6733 C   0  0  0  0  0  0  0  0  0  0  0  0
  145.8484  174.7718  162.8057 C   0  0  0  0  0  0  0  0  0  0  0  0
  147.1408  174.3674  162.8655 N   0  0  0  0  0  0  0  0  0  0  0  0
  147.8909  174.5493  161.7503 C   0  0  0  0  0  0  0  0  0  0  0  0
  147.4133  175.1340  160.5841 C   0  0  0  0  0  0  0  0  0  0  0  0
  146.0829  175.5525  160.5502 C   0  0  0  0  0  0  0  0  0  0  0  0
  148.2637  175.2816  159.4469 C   0  0  0  0  0  0  0  0  0  0  0  0
  148.9444  175.4129  158.5168 N   0  0  0  0  0  0  0  0  0  0  0  0
  141.0846  173.0576  162.3189 C   0  0  0  0  0  0  0  0  0  0  0  0
  142.5334  173.2551  161.8613 C   0  0  0  0  0  0  0  0  0  0  0  0
  143.2005  172.0448  161.2142 C   0  0  0  0  0  0  0  0  0  0  0  0
  142.4851  171.0317  160.5542 C   0  0  0  0  0  0  0  0  0  0  0  0
  143.1494  169.9469  159.9715 C   0  0  0  0  0  0  0  0  0  0  0  0
  144.5357  169.8558  160.0511 C   0  0  0  0  0  0  0  0  0  0  0  0
  145.3495  168.5345  159.3113 Cl  0  0  0  0  0  0  0  0  0  0  0  0
  145.2641  170.8311  160.7228 C   0  0  0  0  0  0  0  0  0  0  0  0
  144.5996  171.9121  161.3080 C   0  0  0  0  0  0  0  0  0  0  0  0
 14 15  1  0  0  0
 15 16  1  0  0  0
 16 17  2  0  0  0
 17 18  1  0  0  0
 18 19  2  0  0  0
 19 20  1  0  0  0
 19 21  1  0  0  0
 21 22  2  0  0  0
 15  1  1  0  0  0
  1  2  1  0  0  0
  1  3  1  0  0  0
  3  4  2  0  0  0
  3  5  2  0  0  0
  3  6  1  0  0  0
  6  7  2  0  0  0
  7  8  1  0  0  0
  8  9  2  0  0  0
  9 10  1  0  0  0
 10 12  1  0  0  0
 12 13  3  0  0  0
 10 11  2  0  0  0
 22 16  1  0  0  0
 11  6  1  0  0  0
M  END
> <minimizedAffinity>
-6.79453

$$$$
