L3:Q15878:123336
 OpenBabel09212617543D

 37 38  0  0  0  0  0  0  0  0999 V2000
  144.6670  172.4707  162.8619 C   0  0  2  0  0  0  0  0  0  0  0  0
  145.6527  173.3314  162.0706 C   0  0  0  0  0  0  0  0  0  0  0  0
  145.6151  174.7280  162.2383 C   0  0  0  0  0  0  0  0  0  0  0  0
  146.4870  175.5626  161.5344 C   0  0  0  0  0  0  0  0  0  0  0  0
  147.4127  175.0242  160.6319 C   0  0  0  0  0  0  0  0  0  0  0  0
  147.4528  173.6344  160.4596 C   0  0  0  0  0  0  0  0  0  0  0  0
  146.5804  172.7989  161.1653 C   0  0  0  0  0  0  0  0  0  0  0  0
  148.3682  175.9224  159.8854 C   0  0  0  0  0  0  0  0  0  0  0  0
  149.2855  176.5245  160.6924 F   0  0  0  0  0  0  0  0  0  0  0  0
  147.7253  176.9296  159.2323 F   0  0  0  0  0  0  0  0  0  0  0  0
  149.0870  175.2612  158.9350 F   0  0  0  0  0  0  0  0  0  0  0  0
  145.1860  171.8368  164.1874 C   0  0  0  0  0  0  0  0  0  0  0  0
  144.2626  171.1316  164.8659 F   0  0  0  0  0  0  0  0  0  0  0  0
  146.2288  171.0037  163.9399 F   0  0  0  0  0  0  0  0  0  0  0  0
  145.6612  172.8004  165.0157 F   0  0  0  0  0  0  0  0  0  0  0  0
  144.8273  170.5215  161.3063 C   0  0  0  0  0  0  0  0  0  0  0  0
  143.9225  171.5264  161.9162 N   0  0  0  0  0  0  0  0  0  0  0  0
  142.8502  172.2930  160.8324 S   0  0  0  0  0  0  0  0  0  0  0  0
  143.6171  173.1003  159.9134 O   0  0  0  0  0  0  0  0  0  0  0  0
  141.9290  171.2807  160.3671 O   0  0  0  0  0  0  0  0  0  0  0  0
  141.9820  173.3939  161.8599 C   0  0  0  0  0  0  0  0  0  0  0  0
  142.2716  174.7355  161.8534 C   0  0  0  0  0  0  0  0  0  0  0  0
  141.6289  175.6231  162.6427 N   0  0  0  0  0  0  0  0  0  0  0  0
  140.6642  175.1162  163.4303 C   0  0  0  0  0  0  0  0  0  0  0  0
  140.3010  173.8230  163.4995 N   0  0  0  0  0  0  0  0  0  0  0  0
  140.9744  172.9757  162.6913 C   0  0  0  0  0  0  0  0  0  0  0  0
  143.9488  173.1454  163.2788 H   0  0  0  0  0  0  0  0  0  0  0  0
  144.9324  175.1426  162.8918 H   0  0  0  0  0  0  0  0  0  0  0  0
  146.4486  176.5835  161.6806 H   0  0  0  0  0  0  0  0  0  0  0  0
  148.1345  173.2218  159.8038 H   0  0  0  0  0  0  0  0  0  0  0  0
  146.6205  171.7783  161.0174 H   0  0  0  0  0  0  0  0  0  0  0  0
  145.4556  170.1011  162.0636 H   0  0  0  0  0  0  0  0  0  0  0  0
  145.4335  170.9930  160.5612 H   0  0  0  0  0  0  0  0  0  0  0  0
  144.2455  169.7456  160.8542 H   0  0  0  0  0  0  0  0  0  0  0  0
  143.0100  175.0798  161.2200 H   0  0  0  0  0  0  0  0  0  0  0  0
  140.1565  175.7794  164.0365 H   0  0  0  0  0  0  0  0  0  0  0  0
  140.7211  171.9753  162.6997 H   0  0  0  0  0  0  0  0  0  0  0  0
  1  2  1  0  0  0  0
  1 12  1  0  0  0  0
  1 27  1  1  0  0  0
  2  3  2  0  0  0  0
  3  4  1  0  0  0  0
  3 28  1  0  0  0  0
  4  5  2  0  0  0  0
  4 29  1  0  0  0  0
  5  8  1  0  0  0  0
  5  6  1  0  0  0  0
  6  7  2  0  0  0  0
  6 30  1  0  0  0  0
  7  2  1  0  0  0  0
  7 31  1  0  0  0  0
  8  9  1  0  0  0  0
  8 10  1  0  0  0  0
  8 11  1  0  0  0  0
 12 13  1  0  0  0  0
 12 14  1  0  0  0  0
 12 15  1  0  0  0  0
 16 17  1  0  0  0  0
 16 32  1  0  0  0  0
 16 33  1  0  0  0  0
 16 34  1  0  0  0  0
 17  1  1  0  0  0  0
 17 18  1  0  0  0  0
 18 19  2  0  0  0  0
 18 20  2  0  0  0  0
 18 21  1  0  0  0  0
 21 22  2  0  0  0  0
 22 23  1  0  0  0  0
 22 35  1  0  0  0  0
 23 24  2  0  0  0  0
 24 25  1  0  0  0  0
 24 36  1  0  0  0  0
 25 26  2  0  0  0  0
 26 21  1  0  0  0  0
 26 37  1  0  0  0  0
M  END
>  <minimizedAffinity>
-7.72921

$$$$
