L3:Q15878:123336
     RDKit          3D

 37 38  0  0  0  0  0  0  0  0999 V2000
   -0.7644   -2.5000    1.1388 C   0  0  0  0  0  0  0  0  0  0  0  0
   -0.5963   -1.3183    0.2580 N   0  0  0  0  0  0  0  0  0  0  0  0
    0.4077   -1.5782   -0.8666 C   0  0  2  0  0  0  0  0  0  0  0  0
    1.3090   -0.3571   -1.0539 C   0  0  0  0  0  0  0  0  0  0  0  0
    2.2003   -0.0112   -0.0214 C   0  0  0  0  0  0  0  0  0  0  0  0
    3.0407    1.0991   -0.1360 C   0  0  0  0  0  0  0  0  0  0  0  0
    3.0036    1.9033   -1.2819 C   0  0  0  0  0  0  0  0  0  0  0  0
    3.9242    3.0914   -1.4157 C   0  0  0  0  0  0  0  0  0  0  0  0
    3.4361    4.0630   -2.2360 F   0  0  0  0  0  0  0  0  0  0  0  0
    5.1395    2.7472   -1.9245 F   0  0  0  0  0  0  0  0  0  0  0  0
    4.1785    3.7038   -0.2252 F   0  0  0  0  0  0  0  0  0  0  0  0
    2.1165    1.5646   -2.3120 C   0  0  0  0  0  0  0  0  0  0  0  0
    1.2758    0.4522   -2.1975 C   0  0  0  0  0  0  0  0  0  0  0  0
   -0.1694   -2.2367   -2.1556 C   0  0  0  0  0  0  0  0  0  0  0  0
   -1.0279   -1.4597   -2.8409 F   0  0  0  0  0  0  0  0  0  0  0  0
    0.8328   -2.5778   -3.0052 F   0  0  0  0  0  0  0  0  0  0  0  0
   -0.8121   -3.3910   -1.8474 F   0  0  0  0  0  0  0  0  0  0  0  0
   -2.0464   -0.5645   -0.2332 S   0  0  0  0  0  6  0  0  0  0  0  0
   -1.7229    0.5463   -1.0968 O   0  0  0  0  0  0  0  0  0  0  0  0
   -2.9447   -1.6164   -0.6534 O   0  0  0  0  0  0  0  0  0  0  0  0
   -2.6514    0.1141    1.2483 C   0  0  0  0  0  0  0  0  0  0  0  0
   -1.9650    1.1118    1.8943 C   0  0  0  0  0  0  0  0  0  0  0  0
   -2.3940    1.6593    3.0519 N   0  0  0  0  0  0  0  0  0  0  0  0
   -3.5553    1.1807    3.5318 C   0  0  0  0  0  0  0  0  0  0  0  0
   -4.3039    0.2160    2.9679 N   0  0  0  0  0  0  0  0  0  0  0  0
   -3.8312   -0.2996    1.8124 C   0  0  0  0  0  0  0  0  0  0  0  0
    0.2049   -2.7843    1.5611 H   0  0  0  0  0  0  0  0  0  0  0  0
   -1.4179   -2.2700    1.9841 H   0  0  0  0  0  0  0  0  0  0  0  0
   -1.1711   -3.3526    0.5890 H   0  0  0  0  0  0  0  0  0  0  0  0
    1.0943   -2.3510   -0.4862 H   0  0  0  0  0  0  0  0  0  0  0  0
    2.2428   -0.6077    0.8889 H   0  0  0  0  0  0  0  0  0  0  0  0
    3.7229    1.3392    0.6788 H   0  0  0  0  0  0  0  0  0  0  0  0
    2.0648    2.1758   -3.2130 H   0  0  0  0  0  0  0  0  0  0  0  0
    0.5853    0.2539   -3.0157 H   0  0  0  0  0  0  0  0  0  0  0  0
   -1.0322    1.5126    1.5057 H   0  0  0  0  0  0  0  0  0  0  0  0
   -3.9215    1.6114    4.4578 H   0  0  0  0  0  0  0  0  0  0  0  0
   -4.4519   -1.0696    1.3622 H   0  0  0  0  0  0  0  0  0  0  0  0
  1  2  1  0
  2  3  1  0
  3  4  1  0
  4  5  2  0
  5  6  1  0
  6  7  2  0
  7  8  1  0
  8  9  1  0
  8 10  1  0
  8 11  1  0
  7 12  1  0
 12 13  2  0
  3 14  1  0
 14 15  1  0
 14 16  1  0
 14 17  1  0
  2 18  1  0
 18 19  2  0
 18 20  2  0
 18 21  1  0
 21 22  2  0
 22 23  1  0
 23 24  2  0
 24 25  1  0
 25 26  2  0
 13  4  1  0
 26 21  1  0
  1 27  1  0
  1 28  1  0
  1 29  1  0
  3 30  1  1
  5 31  1  0
  6 32  1  0
 12 33  1  0
 13 34  1  0
 22 35  1  0
 24 36  1  0
 26 37  1  0
M  END
>  <mol_id>  (1) 
123336

>  <source_index>  (1) 
9

>  <layer>  (1) 
L3

>  <uniprot>  (1) 
Q15878

>  <paff>  (1) 
7.2298999999999998

>  <smiles>  (1) 
CN(C(c1ccc(C(F)(F)F)cc1)C(F)(F)F)S(=O)(=O)c1cncnc1

$$$$
