L3:Q15878:19284
     RDKit          3D

 37 38  0  0  0  0  0  0  0  0999 V2000
   -2.3474   -2.2737    0.6792 C   0  0  0  0  0  0  0  0  0  0  0  0
   -1.6931   -1.3030   -0.2859 C   0  0  0  0  0  0  0  0  0  0  0  0
   -0.4888   -0.6211    0.2492 N   0  0  0  0  0  0  0  0  0  0  0  0
   -0.7390    0.3230    1.4116 C   0  0  2  0  0  0  0  0  0  0  0  0
   -0.3113    1.7406    1.0256 C   0  0  0  0  0  0  0  0  0  0  0  0
   -1.1659    2.5133    0.2128 C   0  0  0  0  0  0  0  0  0  0  0  0
   -0.8085    3.8051   -0.1784 C   0  0  0  0  0  0  0  0  0  0  0  0
    0.4088    4.3313    0.2302 C   0  0  0  0  0  0  0  0  0  0  0  0
    0.7532    5.5690   -0.1473 F   0  0  0  0  0  0  0  0  0  0  0  0
    1.2760    3.5875    1.0182 C   0  0  0  0  0  0  0  0  0  0  0  0
    0.9202    2.2947    1.4123 C   0  0  0  0  0  0  0  0  0  0  0  0
   -0.2835   -0.1692    2.8207 C   0  0  0  0  0  0  0  0  0  0  0  0
    1.0468   -0.3076    2.9635 F   0  0  0  0  0  0  0  0  0  0  0  0
   -0.8509   -1.3645    3.1147 F   0  0  0  0  0  0  0  0  0  0  0  0
   -0.7038    0.6945    3.7804 F   0  0  0  0  0  0  0  0  0  0  0  0
    0.9816   -1.4540    0.2435 S   0  0  0  0  0  6  0  0  0  0  0  0
    2.0505   -0.5218    0.5111 O   0  0  0  0  0  0  0  0  0  0  0  0
    0.8222   -2.6828    0.9830 O   0  0  0  0  0  0  0  0  0  0  0  0
    1.3049   -1.9495   -1.3870 C   0  0  0  0  0  0  0  0  0  0  0  0
    1.4983   -3.2543   -1.7839 C   0  0  0  0  0  0  0  0  0  0  0  0
    1.7792   -3.3650   -3.4687 S   0  0  0  0  0  0  0  0  0  0  0  0
    1.6581   -1.6691   -3.6710 C   0  0  0  0  0  0  0  0  0  0  0  0
    1.8039   -1.0200   -4.9356 C   0  0  0  0  0  0  0  0  0  0  0  0
    1.9071   -0.4788   -5.9568 N   0  0  0  0  0  0  0  0  0  0  0  0
    1.4009   -1.0285   -2.4761 C   0  0  0  0  0  0  0  0  0  0  0  0
   -1.6651   -3.0669    0.9928 H   0  0  0  0  0  0  0  0  0  0  0  0
   -3.2078   -2.7504    0.1977 H   0  0  0  0  0  0  0  0  0  0  0  0
   -2.7165   -1.7677    1.5755 H   0  0  0  0  0  0  0  0  0  0  0  0
   -2.4198   -0.5354   -0.5786 H   0  0  0  0  0  0  0  0  0  0  0  0
   -1.4390   -1.8265   -1.2134 H   0  0  0  0  0  0  0  0  0  0  0  0
   -1.8310    0.3930    1.5267 H   0  0  0  0  0  0  0  0  0  0  0  0
   -2.1197    2.1123   -0.1246 H   0  0  0  0  0  0  0  0  0  0  0  0
   -1.4680    4.4016   -0.8008 H   0  0  0  0  0  0  0  0  0  0  0  0
    2.2300    4.0123    1.3158 H   0  0  0  0  0  0  0  0  0  0  0  0
    1.6366    1.7309    2.0078 H   0  0  0  0  0  0  0  0  0  0  0  0
    1.4883   -4.1461   -1.1690 H   0  0  0  0  0  0  0  0  0  0  0  0
    1.2928    0.0471   -2.3753 H   0  0  0  0  0  0  0  0  0  0  0  0
  1  2  1  0
  2  3  1  0
  3  4  1  0
  4  5  1  0
  5  6  2  0
  6  7  1  0
  7  8  2  0
  8  9  1  0
  8 10  1  0
 10 11  2  0
  4 12  1  0
 12 13  1  0
 12 14  1  0
 12 15  1  0
  3 16  1  0
 16 17  2  0
 16 18  2  0
 16 19  1  0
 19 20  2  0
 20 21  1  0
 21 22  1  0
 22 23  1  0
 23 24  3  0
 22 25  2  0
 11  5  1  0
 25 19  1  0
  1 26  1  0
  1 27  1  0
  1 28  1  0
  2 29  1  0
  2 30  1  0
  4 31  1  1
  6 32  1  0
  7 33  1  0
 10 34  1  0
 11 35  1  0
 20 36  1  0
 25 37  1  0
M  END
>  <mol_id>  (1) 
19284

>  <source_index>  (1) 
2

>  <layer>  (1) 
L3

>  <uniprot>  (1) 
Q15878

>  <paff>  (1) 
6.6904000000000003

>  <smiles>  (1) 
CCN([C@H](c1ccc(F)cc1)C(F)(F)F)S(=O)(=O)c1csc(C#N)c1

$$$$
