L3:Q15878:4124


 25 26  0  0  0  0  0  0  0  0999 V2000
  146.3066  174.4612  160.7479 C   0  0  0  0  0  0  0  0  0  0  0  0
  145.5237  175.4605  159.8864 C   0  0  0  0  0  0  0  0  0  0  0  0
  146.1414  176.3244  158.9672 C   0  0  0  0  0  0  0  0  0  0  0  0
  145.3891  177.1986  158.1684 C   0  0  0  0  0  0  0  0  0  0  0  0
  144.0008  177.2261  158.2657 C   0  0  0  0  0  0  0  0  0  0  0  0
  143.3729  176.3704  159.1675 C   0  0  0  0  0  0  0  0  0  0  0  0
  144.1210  175.4998  159.9661 C   0  0  0  0  0  0  0  0  0  0  0  0
  143.1562  178.0236  157.5455 O   0  0  0  0  0  0  0  0  0  0  0  0
  143.6691  179.2785  157.1169 C   0  0  0  0  0  0  0  0  0  0  0  0
  147.8485  174.6165  160.7517 C   0  0  0  0  0  0  0  0  0  0  0  0
  148.2694  175.8677  161.0259 F   0  0  0  0  0  0  0  0  0  0  0  0
  148.4008  173.7986  161.6882 F   0  0  0  0  0  0  0  0  0  0  0  0
  148.3908  174.2517  159.5649 F   0  0  0  0  0  0  0  0  0  0  0  0
  145.7140  174.2768  162.1382 N   0  0  0  0  0  0  0  0  0  0  0  0
  145.0002  172.8197  162.5731 S   0  0  0  0  0  0  0  0  0  0  0  0
  143.5892  173.0828  162.7638 O   0  0  0  0  0  0  0  0  0  0  0  0
  145.7903  172.2585  163.6463 O   0  0  0  0  0  0  0  0  0  0  0  0
  145.1601  171.6988  161.1528 C   0  0  0  0  0  0  0  0  0  0  0  0
  143.9755  171.7782  160.1879 C   0  0  0  0  0  0  0  0  0  0  0  0
  143.8315  170.4736  159.4225 C   0  0  0  0  0  0  0  0  0  0  0  0
  143.5535  169.3676  160.2783 O   0  0  0  0  0  0  0  0  0  0  0  0
  144.0699  169.4724  161.6058 C   0  0  0  0  0  0  0  0  0  0  0  0
  145.3715  170.2563  161.6534 C   0  0  0  0  0  0  0  0  0  0  0  0
  146.4698  175.9071  163.8359 C   0  0  0  0  0  0  0  0  0  0  0  0
  145.3698  175.5193  162.8622 C   0  0  0  0  0  0  0  0  0  0  0  0
 24 25  1  0  0  0
 25 14  1  0  0  0
 14  1  1  0  0  0
  1  2  1  0  0  0
  2  3  2  0  0  0
  3  4  1  0  0  0
  4  5  2  0  0  0
  5  8  1  0  0  0
  8  9  1  0  0  0
  5  6  1  0  0  0
  6  7  2  0  0  0
  1 10  1  0  0  0
 10 11  1  0  0  0
 10 12  1  0  0  0
 10 13  1  0  0  0
 14 15  1  0  0  0
 15 16  2  0  0  0
 15 17  2  0  0  0
 15 18  1  0  0  0
 18 19  1  0  0  0
 19 20  1  0  0  0
 20 21  1  0  0  0
 21 22  1  0  0  0
 22 23  1  0  0  0
  7  2  1  0  0  0
 23 18  1  0  0  0
M  END
> <minimizedAffinity>
-6.61787

$$$$
