L3:Q15878:4124
     RDKit          3D

 47 48  0  0  0  0  0  0  0  0999 V2000
   -0.3964   -2.7443   -2.2281 C   0  0  0  0  0  0  0  0  0  0  0  0
   -1.1868   -2.0517   -1.1308 C   0  0  0  0  0  0  0  0  0  0  0  0
   -0.4501   -0.8844   -0.6005 N   0  0  0  0  0  0  0  0  0  0  0  0
    0.6681   -1.1969    0.3845 C   0  0  1  0  0  0  0  0  0  0  0  0
    2.0003   -0.5317    0.0153 C   0  0  0  0  0  0  0  0  0  0  0  0
    2.8633    0.0309    0.9700 C   0  0  0  0  0  0  0  0  0  0  0  0
    4.0922    0.5971    0.5990 C   0  0  0  0  0  0  0  0  0  0  0  0
    4.4899    0.6095   -0.7349 C   0  0  0  0  0  0  0  0  0  0  0  0
    5.6577    1.1236   -1.2249 O   0  0  0  0  0  0  0  0  0  0  0  0
    6.5005    1.7966   -0.2984 C   0  0  0  0  0  0  0  0  0  0  0  0
    3.6483    0.0491   -1.6928 C   0  0  0  0  0  0  0  0  0  0  0  0
    2.4222   -0.5138   -1.3253 C   0  0  0  0  0  0  0  0  0  0  0  0
    0.2312   -1.0855    1.8671 C   0  0  0  0  0  0  0  0  0  0  0  0
    0.1197    0.1837    2.3084 F   0  0  0  0  0  0  0  0  0  0  0  0
   -0.9822   -1.6747    2.0450 F   0  0  0  0  0  0  0  0  0  0  0  0
    1.0896   -1.7329    2.6915 F   0  0  0  0  0  0  0  0  0  0  0  0
   -1.1454    0.6442   -0.6424 S   0  0  0  0  0  6  0  0  0  0  0  0
   -1.7615    0.7907   -1.9445 O   0  0  0  0  0  0  0  0  0  0  0  0
   -0.1402    1.5848   -0.1997 O   0  0  0  0  0  0  0  0  0  0  0  0
   -2.4738    0.6636    0.5962 C   0  0  0  0  0  0  0  0  0  0  0  0
   -3.5685   -0.3688    0.3199 C   0  0  0  0  0  0  0  0  0  0  0  0
   -4.8802    0.0741    0.9459 C   0  0  0  0  0  0  0  0  0  0  0  0
   -5.3613    1.2977    0.3944 O   0  0  0  0  0  0  0  0  0  0  0  0
   -4.3575    2.1890   -0.0933 C   0  0  0  0  0  0  0  0  0  0  0  0
   -3.0645    2.0836    0.6992 C   0  0  0  0  0  0  0  0  0  0  0  0
   -0.1809   -2.0536   -3.0498 H   0  0  0  0  0  0  0  0  0  0  0  0
    0.5546   -3.1387   -1.8581 H   0  0  0  0  0  0  0  0  0  0  0  0
   -0.9704   -3.5837   -2.6334 H   0  0  0  0  0  0  0  0  0  0  0  0
   -1.4096   -2.7531   -0.3198 H   0  0  0  0  0  0  0  0  0  0  0  0
   -2.1431   -1.7504   -1.5635 H   0  0  0  0  0  0  0  0  0  0  0  0
    0.8861   -2.2685    0.2633 H   0  0  0  0  0  0  0  0  0  0  0  0
    2.6086    0.0567    2.0272 H   0  0  0  0  0  0  0  0  0  0  0  0
    4.7123    1.0213    1.3820 H   0  0  0  0  0  0  0  0  0  0  0  0
    6.8782    1.1063    0.4630 H   0  0  0  0  0  0  0  0  0  0  0  0
    5.9865    2.6484    0.1594 H   0  0  0  0  0  0  0  0  0  0  0  0
    7.3614    2.1853   -0.8509 H   0  0  0  0  0  0  0  0  0  0  0  0
    3.9428    0.0583   -2.7395 H   0  0  0  0  0  0  0  0  0  0  0  0
    1.7933   -0.9232   -2.1112 H   0  0  0  0  0  0  0  0  0  0  0  0
   -1.9990    0.4508    1.5553 H   0  0  0  0  0  0  0  0  0  0  0  0
   -3.7321   -0.4799   -0.7574 H   0  0  0  0  0  0  0  0  0  0  0  0
   -3.2747   -1.3470    0.7134 H   0  0  0  0  0  0  0  0  0  0  0  0
   -5.6527   -0.6851    0.7864 H   0  0  0  0  0  0  0  0  0  0  0  0
   -4.7724    0.2021    2.0292 H   0  0  0  0  0  0  0  0  0  0  0  0
   -4.1928    1.9788   -1.1557 H   0  0  0  0  0  0  0  0  0  0  0  0
   -4.7614    3.2041   -0.0248 H   0  0  0  0  0  0  0  0  0  0  0  0
   -2.3579    2.8540    0.3748 H   0  0  0  0  0  0  0  0  0  0  0  0
   -3.2911    2.2836    1.7547 H   0  0  0  0  0  0  0  0  0  0  0  0
  1  2  1  0
  2  3  1  0
  3  4  1  0
  4  5  1  0
  5  6  2  0
  6  7  1  0
  7  8  2  0
  8  9  1  0
  9 10  1  0
  8 11  1  0
 11 12  2  0
  4 13  1  0
 13 14  1  0
 13 15  1  0
 13 16  1  0
  3 17  1  0
 17 18  2  0
 17 19  2  0
 17 20  1  0
 20 21  1  0
 21 22  1  0
 22 23  1  0
 23 24  1  0
 24 25  1  0
 12  5  1  0
 25 20  1  0
  1 26  1  0
  1 27  1  0
  1 28  1  0
  2 29  1  0
  2 30  1  0
  4 31  1  6
  6 32  1  0
  7 33  1  0
 10 34  1  0
 10 35  1  0
 10 36  1  0
 11 37  1  0
 12 38  1  0
 20 39  1  0
 21 40  1  0
 21 41  1  0
 22 42  1  0
 22 43  1  0
 24 44  1  0
 24 45  1  0
 25 46  1  0
 25 47  1  0
M  END
>  <mol_id>  (1) 
4124

>  <source_index>  (1) 
0

>  <layer>  (1) 
L3

>  <uniprot>  (1) 
Q15878

>  <paff>  (1) 
6.1101000000000001

>  <smiles>  (1) 
CCN(C(c1ccc(OC)cc1)C(F)(F)F)S(=O)(=O)C1CCOCC1

$$$$
