L3:Q15878:45224
     RDKit          3D

 42 44  0  0  0  0  0  0  0  0999 V2000
   -1.1148    0.7809   -1.3187 C   0  0  0  0  0  0  0  0  0  0  0  0
   -1.1230   -0.7025   -0.9865 C   0  0  0  0  0  0  0  0  0  0  0  0
   -0.3217   -0.9479    0.2516 N   0  0  0  0  0  0  0  0  0  0  0  0
   -1.1466   -1.3995    1.4651 C   0  0  1  0  0  0  0  0  0  0  0  0
   -2.1775   -0.3267    1.8443 C   0  0  0  0  0  0  0  0  0  0  0  0
   -1.7209    0.8581    2.4575 C   0  0  0  0  0  0  0  0  0  0  0  0
   -2.6133    1.8730    2.8060 C   0  0  0  0  0  0  0  0  0  0  0  0
   -3.9660    1.7144    2.5397 C   0  0  0  0  0  0  0  0  0  0  0  0
   -4.8231    2.6885    2.8710 F   0  0  0  0  0  0  0  0  0  0  0  0
   -4.4421    0.5612    1.9295 C   0  0  0  0  0  0  0  0  0  0  0  0
   -3.5518   -0.4572    1.5790 C   0  0  0  0  0  0  0  0  0  0  0  0
   -1.6892   -2.8585    1.3967 C   0  0  0  0  0  0  0  0  0  0  0  0
   -0.6980   -3.7733    1.4573 F   0  0  0  0  0  0  0  0  0  0  0  0
   -2.3961   -3.0875    0.2656 F   0  0  0  0  0  0  0  0  0  0  0  0
   -2.5140   -3.1242    2.4410 F   0  0  0  0  0  0  0  0  0  0  0  0
    1.0962   -1.8840    0.0396 S   0  0  0  0  0  6  0  0  0  0  0  0
    0.7348   -3.0462   -0.7395 O   0  0  0  0  0  0  0  0  0  0  0  0
    1.7335   -2.0043    1.3327 O   0  0  0  0  0  0  0  0  0  0  0  0
    2.1110   -0.8371   -0.9447 C   0  0  0  0  0  0  0  0  0  0  0  0
    2.3621   -1.1717   -2.2655 C   0  0  0  0  0  0  0  0  0  0  0  0
    3.1170   -0.4396   -3.1167 N   0  0  0  0  0  0  0  0  0  0  0  0
    3.6620    0.6791   -2.5784 C   0  0  0  0  0  0  0  0  0  0  0  0
    4.4941    1.6461   -3.1876 C   0  0  0  0  0  0  0  0  0  0  0  0
    4.7956    2.5932   -2.2327 C   0  0  0  0  0  0  0  0  0  0  0  0
    4.1735    2.2285   -1.0649 N   0  0  0  0  0  0  0  0  0  0  0  0
    3.4678    1.0628   -1.2522 C   0  0  0  0  0  0  0  0  0  0  0  0
    2.6806    0.3072   -0.3835 C   0  0  0  0  0  0  0  0  0  0  0  0
   -1.5586    1.3765   -0.5163 H   0  0  0  0  0  0  0  0  0  0  0  0
   -1.6896    0.9654   -2.2317 H   0  0  0  0  0  0  0  0  0  0  0  0
   -0.0975    1.1486   -1.4811 H   0  0  0  0  0  0  0  0  0  0  0  0
   -0.7162   -1.2550   -1.8394 H   0  0  0  0  0  0  0  0  0  0  0  0
   -2.1543   -1.0463   -0.8755 H   0  0  0  0  0  0  0  0  0  0  0  0
   -0.4577   -1.4042    2.3224 H   0  0  0  0  0  0  0  0  0  0  0  0
   -0.6599    0.9967    2.6606 H   0  0  0  0  0  0  0  0  0  0  0  0
   -2.2622    2.7844    3.2794 H   0  0  0  0  0  0  0  0  0  0  0  0
   -5.5047    0.4617    1.7293 H   0  0  0  0  0  0  0  0  0  0  0  0
   -3.9568   -1.3448    1.0962 H   0  0  0  0  0  0  0  0  0  0  0  0
    1.9454   -2.0728   -2.7111 H   0  0  0  0  0  0  0  0  0  0  0  0
    4.8344    1.6412   -4.2138 H   0  0  0  0  0  0  0  0  0  0  0  0
    5.4000    3.4892   -2.2828 H   0  0  0  0  0  0  0  0  0  0  0  0
    4.2266    2.7395   -0.1938 H   0  0  0  0  0  0  0  0  0  0  0  0
    2.5210    0.5872    0.6515 H   0  0  0  0  0  0  0  0  0  0  0  0
  1  2  1  0
  2  3  1  0
  3  4  1  0
  4  5  1  0
  5  6  2  0
  6  7  1  0
  7  8  2  0
  8  9  1  0
  8 10  1  0
 10 11  2  0
  4 12  1  0
 12 13  1  0
 12 14  1  0
 12 15  1  0
  3 16  1  0
 16 17  2  0
 16 18  2  0
 16 19  1  0
 19 20  2  0
 20 21  1  0
 21 22  2  0
 22 23  1  0
 23 24  2  0
 24 25  1  0
 25 26  1  0
 26 27  2  0
 11  5  1  0
 27 19  1  0
 26 22  1  0
  1 28  1  0
  1 29  1  0
  1 30  1  0
  2 31  1  0
  2 32  1  0
  4 33  1  1
  6 34  1  0
  7 35  1  0
 10 36  1  0
 11 37  1  0
 20 38  1  0
 23 39  1  0
 24 40  1  0
 25 41  1  0
 27 42  1  0
M  END
>  <mol_id>  (1) 
45224

>  <source_index>  (1) 
3

>  <layer>  (1) 
L3

>  <uniprot>  (1) 
Q15878

>  <paff>  (1) 
6.6108000000000002

>  <smiles>  (1) 
CCN(C(c1ccc(F)cc1)C(F)(F)F)S(=O)(=O)c1cnc2cc[nH]c2c1

$$$$
