L3:Q15878:45224


 28 30  0  0  0  0  0  0  0  0999 V2000
  145.1839  173.1246  162.2357 N   0  0  0  0  0  0  0  0  0  0  0  0
  144.0107  174.3631  162.3816 S   0  0  0  0  0  0  0  0  0  0  0  0
  144.5439  175.3601  163.2817 O   0  0  0  0  0  0  0  0  0  0  0  0
  142.7351  173.7253  162.6238 O   0  0  0  0  0  0  0  0  0  0  0  0
  143.9540  175.0395  160.7587 C   0  0  0  0  0  0  0  0  0  0  0  0
  144.5288  176.2757  160.5116 C   0  0  0  0  0  0  0  0  0  0  0  0
  144.5539  176.8875  159.3052 N   0  0  0  0  0  0  0  0  0  0  0  0
  143.9363  176.2080  158.3076 C   0  0  0  0  0  0  0  0  0  0  0  0
  143.7816  176.5666  156.9489 C   0  0  0  0  0  0  0  0  0  0  0  0
  143.0765  175.5557  156.3319 C   0  0  0  0  0  0  0  0  0  0  0  0
  142.7986  174.5980  157.2750 N   0  0  0  0  0  0  0  0  0  0  0  0
  143.3199  174.9711  158.4919 C   0  0  0  0  0  0  0  0  0  0  0  0
  143.3063  174.3428  159.7370 C   0  0  0  0  0  0  0  0  0  0  0  0
  142.2849  173.7441  157.1025 H   0  0  0  0  0  0  0  0  0  0  0  0
  147.4136  173.8380  161.4591 C   0  0  0  0  0  0  0  0  0  0  0  0
  146.5660  173.4913  162.6724 C   0  0  0  0  0  0  0  0  0  0  0  0
  144.6831  171.7762  162.7724 C   0  0  0  0  0  0  0  0  0  0  0  0
  144.8494  170.6793  161.7109 C   0  0  0  0  0  0  0  0  0  0  0  0
  143.7276  169.8949  161.3726 C   0  0  0  0  0  0  0  0  0  0  0  0
  143.8192  168.8968  160.4014 C   0  0  0  0  0  0  0  0  0  0  0  0
  145.0292  168.6789  159.7578 C   0  0  0  0  0  0  0  0  0  0  0  0
  145.1179  167.7235  158.8238 F   0  0  0  0  0  0  0  0  0  0  0  0
  146.1481  169.4420  160.0657 C   0  0  0  0  0  0  0  0  0  0  0  0
  146.0604  170.4423  161.0375 C   0  0  0  0  0  0  0  0  0  0  0  0
  145.1726  171.4053  164.2044 C   0  0  0  0  0  0  0  0  0  0  0  0
  145.3976  172.4985  164.9642 F   0  0  0  0  0  0  0  0  0  0  0  0
  146.3118  170.6750  164.1811 F   0  0  0  0  0  0  0  0  0  0  0  0
  144.2430  170.6699  164.8650 F   0  0  0  0  0  0  0  0  0  0  0  0
 15 16  1  0  0  0
 16  1  1  0  0  0
  1 17  1  0  0  0
 17 18  1  0  0  0
 18 19  2  0  0  0
 19 20  1  0  0  0
 20 21  2  0  0  0
 21 22  1  0  0  0
 21 23  1  0  0  0
 23 24  2  0  0  0
 17 25  1  0  0  0
 25 26  1  0  0  0
 25 27  1  0  0  0
 25 28  1  0  0  0
  1  2  1  0  0  0
  2  3  2  0  0  0
  2  4  2  0  0  0
  2  5  1  0  0  0
  5  6  2  0  0  0
  6  7  1  0  0  0
  7  8  2  0  0  0
  8  9  1  0  0  0
  9 10  2  0  0  0
 10 11  1  0  0  0
 11 12  1  0  0  0
 12 13  2  0  0  0
 24 18  1  0  0  0
 13  5  1  0  0  0
 12  8  1  0  0  0
 11 14  1  0  0  0
M  END
> <minimizedAffinity>
-8.34757

$$$$
