L3:Q15878:57801
 OpenBabel09212617543D

 38 40  0  0  0  0  0  0  0  0999 V2000
  144.6349  174.6064  162.6786 S   0  0  0  0  0  0  0  0  0  0  0  0
  144.3848  175.9539  163.1545 O   0  0  0  0  0  0  0  0  0  0  0  0
  144.9603  173.5617  163.6302 O   0  0  0  0  0  0  0  0  0  0  0  0
  145.9082  174.6746  161.4645 C   0  0  0  0  0  0  0  0  0  0  0  0
  146.9336  173.6312  161.3982 C   0  0  0  0  0  0  0  0  0  0  0  0
  147.9013  173.7239  160.4690 C   0  0  0  0  0  0  0  0  0  0  0  0
  147.9134  174.8004  159.5832 N   0  0  0  0  0  0  0  0  0  0  0  0
  148.7944  175.0817  158.5941 N   0  0  0  0  0  0  0  0  0  0  0  0
  148.4193  176.2065  157.9970 N   0  0  0  0  0  0  0  0  0  0  0  0
  147.2863  176.6583  158.6071 C   0  0  0  0  0  0  0  0  0  0  0  0
  146.9400  175.8002  159.6203 C   0  0  0  0  0  0  0  0  0  0  0  0
  145.9093  175.7131  160.5983 C   0  0  0  0  0  0  0  0  0  0  0  0
  143.2316  174.1129  161.8639 N   0  0  0  0  0  0  0  0  0  0  0  0
  142.2950  175.1445  161.3997 C   0  0  0  0  0  0  0  0  0  0  0  0
  141.1446  172.7600  162.0463 C   0  0  0  0  0  0  0  0  0  0  0  0
  142.6755  172.7636  162.1525 C   0  0  1  0  0  0  0  0  0  0  0  0
  143.3890  171.6997  161.3214 C   0  0  0  0  0  0  0  0  0  0  0  0
  143.2431  171.5703  159.9312 C   0  0  0  0  0  0  0  0  0  0  0  0
  143.9307  170.5737  159.2298 C   0  0  0  0  0  0  0  0  0  0  0  0
  144.7733  169.6977  159.9092 C   0  0  0  0  0  0  0  0  0  0  0  0
  145.6165  168.4756  159.0407 Cl  0  0  0  0  0  0  0  0  0  0  0  0
  144.9365  169.8084  161.2856 C   0  0  0  0  0  0  0  0  0  0  0  0
  144.2491  170.8031  161.9855 C   0  0  0  0  0  0  0  0  0  0  0  0
  146.9139  172.8358  162.0554 H   0  0  0  0  0  0  0  0  0  0  0  0
  148.6339  172.9993  160.4117 H   0  0  0  0  0  0  0  0  0  0  0  0
  146.7696  177.5129  158.3471 H   0  0  0  0  0  0  0  0  0  0  0  0
  145.1720  176.4336  160.6457 H   0  0  0  0  0  0  0  0  0  0  0  0
  141.4663  174.6788  160.9084 H   0  0  0  0  0  0  0  0  0  0  0  0
  142.7945  175.7976  160.7150 H   0  0  0  0  0  0  0  0  0  0  0  0
  141.9418  175.7086  162.2375 H   0  0  0  0  0  0  0  0  0  0  0  0
  140.7747  171.7787  162.2586 H   0  0  0  0  0  0  0  0  0  0  0  0
  140.8551  173.0438  161.0561 H   0  0  0  0  0  0  0  0  0  0  0  0
  140.7366  173.4550  162.7502 H   0  0  0  0  0  0  0  0  0  0  0  0
  142.8729  172.5014  163.1709 H   0  0  0  0  0  0  0  0  0  0  0  0
  142.6219  172.2173  159.4209 H   0  0  0  0  0  0  0  0  0  0  0  0
  143.8132  170.4878  158.2081 H   0  0  0  0  0  0  0  0  0  0  0  0
  145.5622  169.1591  161.7876 H   0  0  0  0  0  0  0  0  0  0  0  0
  144.3736  170.8825  163.0069 H   0  0  0  0  0  0  0  0  0  0  0  0
  1  2  2  0  0  0  0
  1  3  2  0  0  0  0
  1  4  1  0  0  0  0
  4  5  1  0  0  0  0
  5  6  2  0  0  0  0
  5 24  1  0  0  0  0
  6  7  1  0  0  0  0
  6 25  1  0  0  0  0
  7  8  1  0  0  0  0
  8  9  2  0  0  0  0
  9 10  1  0  0  0  0
 10 11  2  0  0  0  0
 10 26  1  0  0  0  0
 11 12  1  0  0  0  0
 11  7  1  0  0  0  0
 12  4  2  0  0  0  0
 12 27  1  0  0  0  0
 13 14  1  0  0  0  0
 13  1  1  0  0  0  0
 14 28  1  0  0  0  0
 14 29  1  0  0  0  0
 14 30  1  0  0  0  0
 15 16  1  0  0  0  0
 15 31  1  0  0  0  0
 15 32  1  0  0  0  0
 15 33  1  0  0  0  0
 16 17  1  0  0  0  0
 16 13  1  0  0  0  0
 16 34  1  1  0  0  0
 17 18  2  0  0  0  0
 18 19  1  0  0  0  0
 18 35  1  0  0  0  0
 19 20  2  0  0  0  0
 19 36  1  0  0  0  0
 20 21  1  0  0  0  0
 20 22  1  0  0  0  0
 22 23  2  0  0  0  0
 22 37  1  0  0  0  0
 23 17  1  0  0  0  0
 23 38  1  0  0  0  0
M  END
>  <minimizedAffinity>
-7.83860

$$$$
