L3:Q15878:67332


 24 26  0  0  0  0  0  0  0  0999 V2000
  144.1021  171.4951  161.6704 N   0  0  0  0  0  0  0  0  0  0  0  0
  142.8715  172.0627  160.6674 S   0  0  0  0  0  0  0  0  0  0  0  0
  141.8474  171.0478  160.5557 O   0  0  0  0  0  0  0  0  0  0  0  0
  143.4760  172.6446  159.4882 O   0  0  0  0  0  0  0  0  0  0  0  0
  142.1643  173.3946  161.5931 C   0  0  0  0  0  0  0  0  0  0  0  0
  141.1492  173.1023  162.5146 C   0  0  0  0  0  0  0  0  0  0  0  0
  140.4823  173.9868  163.3086 N   0  0  0  0  0  0  0  0  0  0  0  0
  140.8595  175.2870  163.1213 C   0  0  0  0  0  0  0  0  0  0  0  0
  140.3292  176.3029  163.8020 N   0  0  0  0  0  0  0  0  0  0  0  0
  141.0915  177.6633  163.2222 S   0  0  0  0  0  0  0  0  0  0  0  0
  142.1314  176.9950  162.1017 N   0  0  0  0  0  0  0  0  0  0  0  0
  141.9112  175.6703  162.1296 C   0  0  0  0  0  0  0  0  0  0  0  0
  142.5731  174.7079  161.3401 C   0  0  0  0  0  0  0  0  0  0  0  0
  145.1761  169.5818  160.5529 C   0  0  0  0  0  0  0  0  0  0  0  0
  144.3669  170.0450  161.7538 C   0  0  0  0  0  0  0  0  0  0  0  0
  144.6410  172.3794  162.7382 C   0  0  0  0  0  0  0  0  0  0  0  0
  144.9932  171.5854  164.0034 C   0  0  0  0  0  0  0  0  0  0  0  0
  145.7533  173.2747  162.2020 C   0  0  0  0  0  0  0  0  0  0  0  0
  145.9603  174.5234  162.8232 C   0  0  0  0  0  0  0  0  0  0  0  0
  146.9517  175.3951  162.3707 C   0  0  0  0  0  0  0  0  0  0  0  0
  147.7415  175.0277  161.2911 C   0  0  0  0  0  0  0  0  0  0  0  0
  148.6934  175.8618  160.8529 F   0  0  0  0  0  0  0  0  0  0  0  0
  147.5562  173.8067  160.6555 C   0  0  0  0  0  0  0  0  0  0  0  0
  146.5635  172.9322  161.1066 C   0  0  0  0  0  0  0  0  0  0  0  0
 14 15  1  0  0  0
 15  1  1  0  0  0
  1 16  1  0  0  0
 16 17  1  0  0  0
 16 18  1  0  0  0
 18 19  2  0  0  0
 19 20  1  0  0  0
 20 21  2  0  0  0
 21 22  1  0  0  0
 21 23  1  0  0  0
 23 24  2  0  0  0
  1  2  1  0  0  0
  2  3  2  0  0  0
  2  4  2  0  0  0
  2  5  1  0  0  0
  5  6  1  0  0  0
  6  7  2  0  0  0
  7  8  1  0  0  0
  8  9  2  0  0  0
  9 10  1  0  0  0
 10 11  1  0  0  0
 11 12  2  0  0  0
 12 13  1  0  0  0
 24 18  1  0  0  0
 13  5  2  0  0  0
 12  8  1  0  0  0
M  END
> <minimizedAffinity>
-7.33791

$$$$
