L3:Q15878:67332
     RDKit          3D

 39 41  0  0  0  0  0  0  0  0999 V2000
   -1.1647   -2.2715    1.7672 C   0  0  0  0  0  0  0  0  0  0  0  0
   -0.2888   -1.8101    0.6134 C   0  0  0  0  0  0  0  0  0  0  0  0
    0.0033   -0.3676    0.7308 N   0  0  0  0  0  0  0  0  0  0  0  0
   -0.6264    0.5673   -0.2398 C   0  0  1  0  0  0  0  0  0  0  0  0
   -0.2196    0.2400   -1.6829 C   0  0  0  0  0  0  0  0  0  0  0  0
   -2.1279    0.6825    0.0020 C   0  0  0  0  0  0  0  0  0  0  0  0
   -2.5656    1.3547    1.1616 C   0  0  0  0  0  0  0  0  0  0  0  0
   -3.9255    1.4812    1.4483 C   0  0  0  0  0  0  0  0  0  0  0  0
   -4.8589    0.9335    0.5804 C   0  0  0  0  0  0  0  0  0  0  0  0
   -6.1650    1.0517    0.8523 F   0  0  0  0  0  0  0  0  0  0  0  0
   -4.4569    0.2605   -0.5661 C   0  0  0  0  0  0  0  0  0  0  0  0
   -3.0954    0.1320   -0.8550 C   0  0  0  0  0  0  0  0  0  0  0  0
    1.3351    0.1441    1.6292 S   0  0  0  0  0  6  0  0  0  0  0  0
    1.6382   -0.8516    2.6332 O   0  0  0  0  0  0  0  0  0  0  0  0
    1.1356    1.5310    1.9912 O   0  0  0  0  0  0  0  0  0  0  0  0
    2.6630    0.1037    0.4603 C   0  0  0  0  0  0  0  0  0  0  0  0
    3.3583   -1.1002    0.2809 C   0  0  0  0  0  0  0  0  0  0  0  0
    4.4064   -1.3248   -0.5609 N   0  0  0  0  0  0  0  0  0  0  0  0
    4.8021   -0.2157   -1.2547 C   0  0  0  0  0  0  0  0  0  0  0  0
    5.8071   -0.2263   -2.1302 N   0  0  0  0  0  0  0  0  0  0  0  0
    5.9109    1.3348   -2.6960 S   0  0  0  0  0  0  0  0  0  0  0  0
    4.6670    2.0635   -1.8561 N   0  0  0  0  0  0  0  0  0  0  0  0
    4.1255    1.1070   -1.0841 C   0  0  0  0  0  0  0  0  0  0  0  0
    3.0389    1.2767   -0.2019 C   0  0  0  0  0  0  0  0  0  0  0  0
   -2.1263   -1.7496    1.7703 H   0  0  0  0  0  0  0  0  0  0  0  0
   -0.6885   -2.0936    2.7357 H   0  0  0  0  0  0  0  0  0  0  0  0
   -1.3648   -3.3442    1.6820 H   0  0  0  0  0  0  0  0  0  0  0  0
   -0.8006   -2.0409   -0.3245 H   0  0  0  0  0  0  0  0  0  0  0  0
    0.6416   -2.3861    0.5961 H   0  0  0  0  0  0  0  0  0  0  0  0
   -0.2351    1.5785   -0.0657 H   0  0  0  0  0  0  0  0  0  0  0  0
   -0.6223    0.9889   -2.3746 H   0  0  0  0  0  0  0  0  0  0  0  0
    0.8672    0.2373   -1.7996 H   0  0  0  0  0  0  0  0  0  0  0  0
   -0.5756   -0.7381   -2.0192 H   0  0  0  0  0  0  0  0  0  0  0  0
   -1.8382    1.7781    1.8543 H   0  0  0  0  0  0  0  0  0  0  0  0
   -4.2579    1.9983    2.3427 H   0  0  0  0  0  0  0  0  0  0  0  0
   -5.2066   -0.1628   -1.2274 H   0  0  0  0  0  0  0  0  0  0  0  0
   -2.8139   -0.4076   -1.7550 H   0  0  0  0  0  0  0  0  0  0  0  0
    3.0739   -1.9874    0.8488 H   0  0  0  0  0  0  0  0  0  0  0  0
    2.5506    2.2329   -0.0628 H   0  0  0  0  0  0  0  0  0  0  0  0
  1  2  1  0
  2  3  1  0
  3  4  1  0
  4  5  1  0
  4  6  1  0
  6  7  2  0
  7  8  1  0
  8  9  2  0
  9 10  1  0
  9 11  1  0
 11 12  2  0
  3 13  1  0
 13 14  2  0
 13 15  2  0
 13 16  1  0
 16 17  1  0
 17 18  2  0
 18 19  1  0
 19 20  2  0
 20 21  1  0
 21 22  1  0
 22 23  2  0
 23 24  1  0
 12  6  1  0
 24 16  2  0
 23 19  1  0
  1 25  1  0
  1 26  1  0
  1 27  1  0
  2 28  1  0
  2 29  1  0
  4 30  1  1
  5 31  1  0
  5 32  1  0
  5 33  1  0
  7 34  1  0
  8 35  1  0
 11 36  1  0
 12 37  1  0
 17 38  1  0
 24 39  1  0
M  END
>  <mol_id>  (1) 
67332

>  <source_index>  (1) 
5

>  <layer>  (1) 
L3

>  <uniprot>  (1) 
Q15878

>  <paff>  (1) 
6.8013000000000003

>  <smiles>  (1) 
CCN([C@@H](C)c1ccc(F)cc1)S(=O)(=O)c1cnc2nsnc2c1

$$$$
