L3:Q15878:76146
     RDKit          3D

 42 44  0  0  0  0  0  0  0  0999 V2000
   -0.3820    0.9226    1.5280 C   0  0  0  0  0  0  0  0  0  0  0  0
   -0.5218   -0.5520    1.1861 C   0  0  0  0  0  0  0  0  0  0  0  0
   -0.4271   -0.7409   -0.2928 N   0  0  0  0  0  0  0  0  0  0  0  0
   -1.7318   -1.1863   -0.9653 C   0  0  2  0  0  0  0  0  0  0  0  0
   -2.8330   -0.1378   -0.7518 C   0  0  0  0  0  0  0  0  0  0  0  0
   -2.7503    1.0780   -1.4613 C   0  0  0  0  0  0  0  0  0  0  0  0
   -3.7143    2.0727   -1.2911 C   0  0  0  0  0  0  0  0  0  0  0  0
   -4.7639    1.8627   -0.4078 C   0  0  0  0  0  0  0  0  0  0  0  0
   -5.6883    2.8171   -0.2411 F   0  0  0  0  0  0  0  0  0  0  0  0
   -4.8656    0.6779    0.3097 C   0  0  0  0  0  0  0  0  0  0  0  0
   -3.9022   -0.3204    0.1423 C   0  0  0  0  0  0  0  0  0  0  0  0
   -2.1492   -2.6632   -0.6958 C   0  0  0  0  0  0  0  0  0  0  0  0
   -1.2994   -3.5452   -1.2639 F   0  0  0  0  0  0  0  0  0  0  0  0
   -2.2121   -2.9426    0.6272 F   0  0  0  0  0  0  0  0  0  0  0  0
   -3.3742   -2.9293   -1.2157 F   0  0  0  0  0  0  0  0  0  0  0  0
    0.9259   -1.6369   -0.8358 S   0  0  0  0  0  6  0  0  0  0  0  0
    1.0166   -2.8255   -0.0173 O   0  0  0  0  0  0  0  0  0  0  0  0
    0.8559   -1.7090   -2.2786 O   0  0  0  0  0  0  0  0  0  0  0  0
    2.2876   -0.5673   -0.4270 C   0  0  0  0  0  0  0  0  0  0  0  0
    2.4500    0.6165   -1.1554 C   0  0  0  0  0  0  0  0  0  0  0  0
    3.5103    1.4840   -0.8653 C   0  0  0  0  0  0  0  0  0  0  0  0
    4.4071    1.1374    0.1613 C   0  0  0  0  0  0  0  0  0  0  0  0
    5.5591    1.7120    0.7430 C   0  0  0  0  0  0  0  0  0  0  0  0
    6.0716    0.9626    1.7222 N   0  0  0  0  0  0  0  0  0  0  0  0
    5.2530   -0.1033    1.7626 N   0  0  0  0  0  0  0  0  0  0  0  0
    4.2252   -0.0542    0.8562 C   0  0  0  0  0  0  0  0  0  0  0  0
    3.1771   -0.9417    0.5907 C   0  0  0  0  0  0  0  0  0  0  0  0
   -1.1743    1.5204    1.0694 H   0  0  0  0  0  0  0  0  0  0  0  0
   -0.4388    1.0646    2.6119 H   0  0  0  0  0  0  0  0  0  0  0  0
    0.5764    1.3234    1.1859 H   0  0  0  0  0  0  0  0  0  0  0  0
    0.2625   -1.1080    1.7095 H   0  0  0  0  0  0  0  0  0  0  0  0
   -1.4676   -0.9303    1.5820 H   0  0  0  0  0  0  0  0  0  0  0  0
   -1.5502   -1.1471   -2.0492 H   0  0  0  0  0  0  0  0  0  0  0  0
   -1.9240    1.2570   -2.1482 H   0  0  0  0  0  0  0  0  0  0  0  0
   -3.6510    3.0080   -1.8382 H   0  0  0  0  0  0  0  0  0  0  0  0
   -5.6949    0.5383    0.9967 H   0  0  0  0  0  0  0  0  0  0  0  0
   -4.0078   -1.2338    0.7248 H   0  0  0  0  0  0  0  0  0  0  0  0
    1.7530    0.8717   -1.9515 H   0  0  0  0  0  0  0  0  0  0  0  0
    3.6375    2.4050   -1.4273 H   0  0  0  0  0  0  0  0  0  0  0  0
    6.0427    2.6468    0.4908 H   0  0  0  0  0  0  0  0  0  0  0  0
    5.4501   -0.8343    2.4370 H   0  0  0  0  0  0  0  0  0  0  0  0
    3.0626   -1.8695    1.1429 H   0  0  0  0  0  0  0  0  0  0  0  0
  1  2  1  0
  2  3  1  0
  3  4  1  0
  4  5  1  0
  5  6  2  0
  6  7  1  0
  7  8  2  0
  8  9  1  0
  8 10  1  0
 10 11  2  0
  4 12  1  0
 12 13  1  0
 12 14  1  0
 12 15  1  0
  3 16  1  0
 16 17  2  0
 16 18  2  0
 16 19  1  0
 19 20  2  0
 20 21  1  0
 21 22  2  0
 22 23  1  0
 23 24  2  0
 24 25  1  0
 25 26  1  0
 26 27  2  0
 11  5  1  0
 27 19  1  0
 26 22  1  0
  1 28  1  0
  1 29  1  0
  1 30  1  0
  2 31  1  0
  2 32  1  0
  4 33  1  6
  6 34  1  0
  7 35  1  0
 10 36  1  0
 11 37  1  0
 20 38  1  0
 21 39  1  0
 23 40  1  0
 25 41  1  0
 27 42  1  0
M  END
>  <mol_id>  (1) 
76146

>  <source_index>  (1) 
6

>  <layer>  (1) 
L3

>  <uniprot>  (1) 
Q15878

>  <paff>  (1) 
6.3297999999999996

>  <smiles>  (1) 
CCN(C(c1ccc(F)cc1)C(F)(F)F)S(=O)(=O)c1ccc2cn[nH]c2c1

$$$$
