L3:Q15878:76146


 28 30  0  0  0  0  0  0  0  0999 V2000
  145.1832  175.0769  161.9017 N   0  0  0  0  0  0  0  0  0  0  0  0
  143.9489  175.8397  160.9946 S   0  0  0  0  0  0  0  0  0  0  0  0
  144.2300  177.2581  160.9855 O   0  0  0  0  0  0  0  0  0  0  0  0
  143.7749  175.0897  159.7702 O   0  0  0  0  0  0  0  0  0  0  0  0
  142.5043  175.5590  161.9944 C   0  0  0  0  0  0  0  0  0  0  0  0
  141.8563  174.3222  161.9008 C   0  0  0  0  0  0  0  0  0  0  0  0
  140.7152  174.0632  162.6699 C   0  0  0  0  0  0  0  0  0  0  0  0
  140.2330  175.0695  163.5261 C   0  0  0  0  0  0  0  0  0  0  0  0
  139.1578  175.2056  164.4322 C   0  0  0  0  0  0  0  0  0  0  0  0
  139.1272  176.4037  165.0210 N   0  0  0  0  0  0  0  0  0  0  0  0
  140.1798  177.0445  164.4830 N   0  0  0  0  0  0  0  0  0  0  0  0
  140.8927  176.2932  163.5843 C   0  0  0  0  0  0  0  0  0  0  0  0
  142.0340  176.5831  162.8294 C   0  0  0  0  0  0  0  0  0  0  0  0
  140.3603  177.9989  164.7739 H   0  0  0  0  0  0  0  0  0  0  0  0
  145.7884  175.8930  164.1494 C   0  0  0  0  0  0  0  0  0  0  0  0
  146.0837  175.9952  162.6618 C   0  0  0  0  0  0  0  0  0  0  0  0
  145.9087  173.9874  161.1020 C   0  0  0  0  0  0  0  0  0  0  0  0
  145.4403  172.5933  161.5433 C   0  0  0  0  0  0  0  0  0  0  0  0
  145.0249  172.4152  162.8790 C   0  0  0  0  0  0  0  0  0  0  0  0
  144.6070  171.1652  163.3377 C   0  0  0  0  0  0  0  0  0  0  0  0
  144.6060  170.0838  162.4679 C   0  0  0  0  0  0  0  0  0  0  0  0
  144.2079  168.8830  162.9070 F   0  0  0  0  0  0  0  0  0  0  0  0
  145.0174  170.2291  161.1494 C   0  0  0  0  0  0  0  0  0  0  0  0
  145.4369  171.4790  160.6863 C   0  0  0  0  0  0  0  0  0  0  0  0
  147.4512  174.1692  160.9765 C   0  0  0  0  0  0  0  0  0  0  0  0
  147.7975  175.4570  160.7656 F   0  0  0  0  0  0  0  0  0  0  0  0
  148.1072  173.7397  162.0799 F   0  0  0  0  0  0  0  0  0  0  0  0
  147.9437  173.4677  159.9244 F   0  0  0  0  0  0  0  0  0  0  0  0
 15 16  1  0  0  0
 16  1  1  0  0  0
  1 17  1  0  0  0
 17 18  1  0  0  0
 18 19  2  0  0  0
 19 20  1  0  0  0
 20 21  2  0  0  0
 21 22  1  0  0  0
 21 23  1  0  0  0
 23 24  2  0  0  0
 17 25  1  0  0  0
 25 26  1  0  0  0
 25 27  1  0  0  0
 25 28  1  0  0  0
  1  2  1  0  0  0
  2  3  2  0  0  0
  2  4  2  0  0  0
  2  5  1  0  0  0
  5  6  2  0  0  0
  6  7  1  0  0  0
  7  8  2  0  0  0
  8  9  1  0  0  0
  9 10  2  0  0  0
 10 11  1  0  0  0
 11 12  1  0  0  0
 12 13  2  0  0  0
 24 18  1  0  0  0
 13  5  1  0  0  0
 12  8  1  0  0  0
 11 14  1  0  0  0
M  END
> <minimizedAffinity>
-7.81575

$$$$
