L3:Q15878:84015
     RDKit          3D

 40 41  0  0  0  0  0  0  0  0999 V2000
    0.2356    1.7054   -2.5428 C   0  0  0  0  0  0  0  0  0  0  0  0
   -0.6665    1.7673   -1.3244 C   0  0  0  0  0  0  0  0  0  0  0  0
   -0.1328    0.9820   -0.1951 N   0  0  0  0  0  0  0  0  0  0  0  0
   -0.8203   -0.2739    0.1923 C   0  0  2  0  0  0  0  0  0  0  0  0
   -0.6337   -1.3200   -0.9142 C   0  0  0  0  0  0  0  0  0  0  0  0
   -2.2638   -0.0336    0.6306 C   0  0  0  0  0  0  0  0  0  0  0  0
   -3.3773   -0.5096   -0.0838 C   0  0  0  0  0  0  0  0  0  0  0  0
   -4.6766   -0.2535    0.3644 C   0  0  0  0  0  0  0  0  0  0  0  0
   -4.8731    0.4796    1.5268 C   0  0  0  0  0  0  0  0  0  0  0  0
   -6.1198    0.7227    1.9514 F   0  0  0  0  0  0  0  0  0  0  0  0
   -3.7947    0.9636    2.2522 C   0  0  0  0  0  0  0  0  0  0  0  0
   -2.4965    0.7083    1.8061 C   0  0  0  0  0  0  0  0  0  0  0  0
    1.1879    1.5314    0.6895 S   0  0  0  0  0  6  0  0  0  0  0  0
    1.5042    2.8798    0.2714 O   0  0  0  0  0  0  0  0  0  0  0  0
    0.9683    1.2162    2.0855 O   0  0  0  0  0  0  0  0  0  0  0  0
    2.4973    0.4924    0.1413 C   0  0  0  0  0  0  0  0  0  0  0  0
    3.3474    0.9356   -0.8450 C   0  0  0  0  0  0  0  0  0  0  0  0
    4.3734    0.1799   -1.2793 N   0  0  0  0  0  0  0  0  0  0  0  0
    4.5982   -1.0431   -0.7083 N   0  0  0  0  0  0  0  0  0  0  0  0
    3.8091   -1.4843    0.2958 C   0  0  0  0  0  0  0  0  0  0  0  0
    4.1329   -2.8133    0.9010 C   0  0  0  0  0  0  0  0  0  0  0  0
    2.7415   -0.7322    0.7541 C   0  0  0  0  0  0  0  0  0  0  0  0
    1.1684    2.2492   -2.3775 H   0  0  0  0  0  0  0  0  0  0  0  0
    0.4855    0.6745   -2.8105 H   0  0  0  0  0  0  0  0  0  0  0  0
   -0.2616    2.1692   -3.4010 H   0  0  0  0  0  0  0  0  0  0  0  0
   -1.6577    1.4012   -1.6109 H   0  0  0  0  0  0  0  0  0  0  0  0
   -0.8159    2.8065   -1.0109 H   0  0  0  0  0  0  0  0  0  0  0  0
   -0.3232   -0.7036    1.0716 H   0  0  0  0  0  0  0  0  0  0  0  0
   -1.1107   -1.0214   -1.8536 H   0  0  0  0  0  0  0  0  0  0  0  0
    0.4286   -1.4770   -1.1288 H   0  0  0  0  0  0  0  0  0  0  0  0
   -1.0572   -2.2853   -0.6153 H   0  0  0  0  0  0  0  0  0  0  0  0
   -3.2603   -1.0820   -1.0002 H   0  0  0  0  0  0  0  0  0  0  0  0
   -5.5362   -0.6207   -0.1876 H   0  0  0  0  0  0  0  0  0  0  0  0
   -3.9664    1.5368    3.1577 H   0  0  0  0  0  0  0  0  0  0  0  0
   -1.6595    1.0969    2.3851 H   0  0  0  0  0  0  0  0  0  0  0  0
    3.2515    1.9026   -1.3245 H   0  0  0  0  0  0  0  0  0  0  0  0
    3.2845   -3.4959    0.7909 H   0  0  0  0  0  0  0  0  0  0  0  0
    4.3657   -2.6983    1.9641 H   0  0  0  0  0  0  0  0  0  0  0  0
    4.9999   -3.2657    0.4091 H   0  0  0  0  0  0  0  0  0  0  0  0
    2.1239   -1.0869    1.5727 H   0  0  0  0  0  0  0  0  0  0  0  0
  1  2  1  0
  2  3  1  0
  3  4  1  0
  4  5  1  0
  4  6  1  0
  6  7  2  0
  7  8  1  0
  8  9  2  0
  9 10  1  0
  9 11  1  0
 11 12  2  0
  3 13  1  0
 13 14  2  0
 13 15  2  0
 13 16  1  0
 16 17  2  0
 17 18  1  0
 18 19  2  0
 19 20  1  0
 20 21  1  0
 20 22  2  0
 12  6  1  0
 22 16  1  0
  1 23  1  0
  1 24  1  0
  1 25  1  0
  2 26  1  0
  2 27  1  0
  4 28  1  1
  5 29  1  0
  5 30  1  0
  5 31  1  0
  7 32  1  0
  8 33  1  0
 11 34  1  0
 12 35  1  0
 17 36  1  0
 21 37  1  0
 21 38  1  0
 21 39  1  0
 22 40  1  0
M  END
>  <mol_id>  (1) 
84015

>  <source_index>  (1) 
7

>  <layer>  (1) 
L3

>  <uniprot>  (1) 
Q15878

>  <paff>  (1) 
6.7190000000000003

>  <smiles>  (1) 
CCN(C(C)c1ccc(F)cc1)S(=O)(=O)c1cnnc(C)c1

$$$$
