L3:Q15878:84015
 OpenBabel09212617543D

 40 41  0  0  0  0  0  0  0  0999 V2000
  144.8948  172.8005  163.0412 N   0  0  0  0  0  0  0  0  0  0  0  0
  145.9976  174.0506  163.2641 S   0  0  0  0  0  0  0  0  0  0  0  0
  145.5338  174.8987  164.3405 O   0  0  0  0  0  0  0  0  0  0  0  0
  147.3317  173.4882  163.2805 O   0  0  0  0  0  0  0  0  0  0  0  0
  145.8619  174.9750  161.7736 C   0  0  0  0  0  0  0  0  0  0  0  0
  144.7686  175.7857  161.5752 C   0  0  0  0  0  0  0  0  0  0  0  0
  144.6359  176.5243  160.4575 N   0  0  0  0  0  0  0  0  0  0  0  0
  145.6224  176.4953  159.5098 N   0  0  0  0  0  0  0  0  0  0  0  0
  146.7305  175.7458  159.6991 C   0  0  0  0  0  0  0  0  0  0  0  0
  147.7872  175.7887  158.6413 C   0  0  0  0  0  0  0  0  0  0  0  0
  146.8875  174.9692  160.8339 C   0  0  0  0  0  0  0  0  0  0  0  0
  145.9420  171.1213  164.5425 C   0  0  0  0  0  0  0  0  0  0  0  0
  144.6596  171.8012  164.1008 C   0  0  0  0  0  0  0  0  0  0  0  0
  144.1893  172.6499  161.7452 C   0  0  2  0  0  0  0  0  0  0  0  0
  142.6952  172.9372  161.9411 C   0  0  0  0  0  0  0  0  0  0  0  0
  144.5176  171.3265  161.0564 C   0  0  0  0  0  0  0  0  0  0  0  0
  145.8304  170.8994  160.7898 C   0  0  0  0  0  0  0  0  0  0  0  0
  146.0689  169.6788  160.1511 C   0  0  0  0  0  0  0  0  0  0  0  0
  144.9998  168.8777  159.7736 C   0  0  0  0  0  0  0  0  0  0  0  0
  145.2337  167.7097  159.1614 F   0  0  0  0  0  0  0  0  0  0  0  0
  143.6937  169.2727  160.0216 C   0  0  0  0  0  0  0  0  0  0  0  0
  143.4540  170.4912  160.6598 C   0  0  0  0  0  0  0  0  0  0  0  0
  144.0341  175.8287  162.2988 H   0  0  0  0  0  0  0  0  0  0  0  0
  147.4765  176.4422  157.8531 H   0  0  0  0  0  0  0  0  0  0  0  0
  147.9398  174.8048  158.2495 H   0  0  0  0  0  0  0  0  0  0  0  0
  148.7012  176.1498  159.0646 H   0  0  0  0  0  0  0  0  0  0  0  0
  147.7386  174.4037  160.9783 H   0  0  0  0  0  0  0  0  0  0  0  0
  145.7218  170.4080  165.3090 H   0  0  0  0  0  0  0  0  0  0  0  0
  146.6219  171.8548  164.9226 H   0  0  0  0  0  0  0  0  0  0  0  0
  146.3867  170.6216  163.7074 H   0  0  0  0  0  0  0  0  0  0  0  0
  144.2208  172.2909  164.9450 H   0  0  0  0  0  0  0  0  0  0  0  0
  144.0090  171.0496  163.7049 H   0  0  0  0  0  0  0  0  0  0  0  0
  144.5474  173.3797  161.0495 H   0  0  0  0  0  0  0  0  0  0  0  0
  142.2840  172.2316  162.6324 H   0  0  0  0  0  0  0  0  0  0  0  0
  142.1896  172.8525  161.0019 H   0  0  0  0  0  0  0  0  0  0  0  0
  142.5699  173.9278  162.3256 H   0  0  0  0  0  0  0  0  0  0  0  0
  146.6268  171.4935  161.0687 H   0  0  0  0  0  0  0  0  0  0  0  0
  147.0365  169.3744  159.9609 H   0  0  0  0  0  0  0  0  0  0  0  0
  142.9053  168.6708  159.7367 H   0  0  0  0  0  0  0  0  0  0  0  0
  142.4820  170.7850  160.8441 H   0  0  0  0  0  0  0  0  0  0  0  0
  1 14  1  0  0  0  0
  1  2  1  0  0  0  0
  2  3  2  0  0  0  0
  2  4  2  0  0  0  0
  2  5  1  0  0  0  0
  5  6  2  0  0  0  0
  6  7  1  0  0  0  0
  6 23  1  0  0  0  0
  7  8  2  0  0  0  0
  8  9  1  0  0  0  0
  9 10  1  0  0  0  0
  9 11  2  0  0  0  0
 10 24  1  0  0  0  0
 10 25  1  0  0  0  0
 10 26  1  0  0  0  0
 11  5  1  0  0  0  0
 11 27  1  0  0  0  0
 12 13  1  0  0  0  0
 12 28  1  0  0  0  0
 12 29  1  0  0  0  0
 12 30  1  0  0  0  0
 13  1  1  0  0  0  0
 13 31  1  0  0  0  0
 13 32  1  0  0  0  0
 14 15  1  0  0  0  0
 14 16  1  0  0  0  0
 14 33  1  6  0  0  0
 15 34  1  0  0  0  0
 15 35  1  0  0  0  0
 15 36  1  0  0  0  0
 16 17  2  0  0  0  0
 17 18  1  0  0  0  0
 17 37  1  0  0  0  0
 18 19  2  0  0  0  0
 18 38  1  0  0  0  0
 19 20  1  0  0  0  0
 19 21  1  0  0  0  0
 21 22  2  0  0  0  0
 21 39  1  0  0  0  0
 22 16  1  0  0  0  0
 22 40  1  0  0  0  0
M  END
>  <minimizedAffinity>
-7.65931

$$$$
