L3:Q9NR22:6438
     RDKit          3D

 55 58  0  0  0  0  0  0  0  0999 V2000
   -2.7950   -0.5188   13.3080 C   0  0  1  0  0  0  0  0  0  0  0  0
   -1.8849    0.5071   12.8495 O   0  0  0  0  0  0  0  0  0  0  0  0
   -2.1730    0.7784   11.4613 C   0  0  2  0  0  0  0  0  0  0  0  0
   -2.8732   -0.4662   10.9065 C   0  0  2  0  0  0  0  0  0  0  0  0
   -3.7794   -0.2076    9.8299 O   0  0  0  0  0  0  0  0  0  0  0  0
   -3.6538   -0.9472   12.1171 C   0  0  2  0  0  0  0  0  0  0  0  0
   -4.9099   -0.2489   12.1647 O   0  0  0  0  0  0  0  0  0  0  0  0
   -3.2537    0.2263    9.1201 H   0  0  0  0  0  0  0  0  0  0  0  0
   -5.2232   -0.2241   11.2347 H   0  0  0  0  0  0  0  0  0  0  0  0
   -0.9405    1.1073   10.7674 N   0  0  0  0  0  0  0  0  0  0  0  0
   -0.3087    0.3662    9.8032 C   0  0  0  0  0  0  0  0  0  0  0  0
    0.8338    0.9079    9.4339 N   0  0  0  0  0  0  0  0  0  0  0  0
    0.9517    2.0450   10.2049 C   0  0  0  0  0  0  0  0  0  0  0  0
    1.9510    3.0294   10.2964 C   0  0  0  0  0  0  0  0  0  0  0  0
    3.1242    2.9891    9.5592 N   0  0  0  0  0  0  0  0  0  0  0  0
    1.7580    4.0685   11.1384 N   0  0  0  0  0  0  0  0  0  0  0  0
    0.6290    4.0918   11.8791 C   0  0  0  0  0  0  0  0  0  0  0  0
   -0.3909    3.2018   11.8913 N   0  0  0  0  0  0  0  0  0  0  0  0
   -0.1513    2.1966   11.0272 C   0  0  0  0  0  0  0  0  0  0  0  0
    3.5534    3.8997    9.4609 H   0  0  0  0  0  0  0  0  0  0  0  0
    3.0621    2.4030    8.7343 H   0  0  0  0  0  0  0  0  0  0  0  0
   -2.0171   -1.6548   13.9939 C   0  0  0  0  0  0  0  0  0  0  0  0
   -0.1982   -1.5703   13.7862 S   0  0  0  0  0  0  0  0  0  0  0  0
   -0.0187   -2.4177   12.1809 C   0  0  0  0  0  0  0  0  0  0  0  0
   -0.0349   -3.9463   12.2857 C   0  0  0  0  0  0  0  0  0  0  0  0
    1.1692   -4.4862   11.6665 N   0  0  0  0  0  0  0  0  0  0  0  0
    1.7788   -4.9513   12.3372 H   0  0  0  0  0  0  0  0  0  0  0  0
    0.9615   -6.3445   10.2484 N   0  0  0  0  0  0  0  0  0  0  0  0
    1.2140   -5.1004   10.4456 C   0  0  0  0  0  0  0  0  0  0  0  0
    0.7361   -6.8135   11.1216 H   0  0  0  0  0  0  0  0  0  0  0  0
    1.5614   -4.1832    9.4969 N   0  0  0  0  0  0  0  0  0  0  0  0
    1.0270   -3.3243    9.5370 H   0  0  0  0  0  0  0  0  0  0  0  0
    2.1265   -4.3793    8.2156 C   0  0  0  0  0  0  0  0  0  0  0  0
    1.3594   -4.5916    7.0612 C   0  0  0  0  0  0  0  0  0  0  0  0
    1.9599   -4.8132    5.8155 C   0  0  0  0  0  0  0  0  0  0  0  0
    3.3465   -4.8458    5.7017 C   0  0  0  0  0  0  0  0  0  0  0  0
    4.1354   -4.6668    6.8346 C   0  0  0  0  0  0  0  0  0  0  0  0
    3.5296   -4.4437    8.0762 C   0  0  0  0  0  0  0  0  0  0  0  0
    4.6720   -4.2123    9.5835 Br  0  0  0  0  0  0  0  0  0  0  0  0
   -3.4620   -0.1593   14.0636 H   0  0  0  0  0  0  0  0  0  0  0  0
   -2.8176    1.6221   11.3286 H   0  0  0  0  0  0  0  0  0  0  0  0
   -2.1688   -1.1564   10.4914 H   0  0  0  0  0  0  0  0  0  0  0  0
   -3.8500   -1.9990   12.1029 H   0  0  0  0  0  0  0  0  0  0  0  0
   -0.6837   -0.5124    9.4126 H   0  0  0  0  0  0  0  0  0  0  0  0
    0.5308    4.8942   12.5206 H   0  0  0  0  0  0  0  0  0  0  0  0
   -2.2350   -1.6233   15.0410 H   0  0  0  0  0  0  0  0  0  0  0  0
   -2.3332   -2.5636   13.5258 H   0  0  0  0  0  0  0  0  0  0  0  0
   -0.8252   -2.1141   11.5467 H   0  0  0  0  0  0  0  0  0  0  0  0
    0.9370   -2.1415   11.7869 H   0  0  0  0  0  0  0  0  0  0  0  0
   -0.0660   -4.2333   13.3160 H   0  0  0  0  0  0  0  0  0  0  0  0
   -0.8982   -4.3301   11.7835 H   0  0  0  0  0  0  0  0  0  0  0  0
    0.3298   -4.5844    7.1310 H   0  0  0  0  0  0  0  0  0  0  0  0
    1.3720   -4.9528    4.9789 H   0  0  0  0  0  0  0  0  0  0  0  0
    3.7878   -5.0019    4.7819 H   0  0  0  0  0  0  0  0  0  0  0  0
    5.1641   -4.6985    6.7590 H   0  0  0  0  0  0  0  0  0  0  0  0
  1  2  1  0
  1 40  1  1
  2  3  1  0
  3 10  1  0
  3  4  1  0
  3 41  1  1
  4  5  1  0
  4  6  1  0
  4 42  1  6
  5  8  1  0
  6  7  1  0
  6  1  1  0
  6 43  1  6
  7  9  1  0
 10 11  1  0
 11 12  2  0
 11 44  1  0
 12 13  1  0
 13 14  2  0
 14 15  1  0
 14 16  1  0
 15 20  1  0
 15 21  1  0
 16 17  2  0
 17 18  1  0
 17 45  1  0
 18 19  2  0
 19 10  1  0
 19 13  1  0
 22  1  1  0
 22 46  1  0
 22 47  1  0
 23 22  1  0
 24 23  1  0
 24 48  1  0
 24 49  1  0
 25 24  1  0
 25 50  1  0
 25 51  1  0
 26 25  1  0
 26 27  1  0
 28 29  2  0
 28 30  1  0
 29 26  1  0
 29 31  1  0
 31 33  1  0
 31 32  1  0
 33 34  2  0
 34 35  1  0
 34 52  1  0
 35 36  2  0
 35 53  1  0
 36 37  1  0
 36 54  1  0
 37 38  2  0
 37 55  1  0
 38 39  1  0
 38 33  1  0
M  END
>  <minimizedAffinity>  (1) 
-7.08869

>  <mol_id>  (1) 
6438

>  <source_index>  (1) 
0

>  <layer>  (1) 
L3

>  <uniprot>  (1) 
Q9NR22

>  <paff>  (1) 
7.4949000000000003

>  <smiles>  (1) 
N=C(NCCSC[C@H]1O[C@@H](n2cnc3c(N)ncnc32)[C@H](O)[C@@H]1O)Nc1ccccc1Br

$$$$
L3:Q9NR22:15841
     RDKit          3D

 49 51  0  0  0  0  0  0  0  0999 V2000
    0.2995   -0.5135   12.6736 C   0  0  1  0  0  0  0  0  0  0  0  0
    1.3873    0.0567   11.9000 O   0  0  0  0  0  0  0  0  0  0  0  0
    1.6843    1.3697   12.4279 C   0  0  2  0  0  0  0  0  0  0  0  0
    0.7779    1.5893   13.6428 C   0  0  2  0  0  0  0  0  0  0  0  0
    1.4527    1.1448   14.8334 O   0  0  0  0  0  0  0  0  0  0  0  0
   -0.4041    0.6854   13.3138 C   0  0  2  0  0  0  0  0  0  0  0  0
   -1.1906    0.4182   14.4643 O   0  0  0  0  0  0  0  0  0  0  0  0
    1.9447    1.9059   15.1864 H   0  0  0  0  0  0  0  0  0  0  0  0
   -1.7304   -0.3728   14.2839 H   0  0  0  0  0  0  0  0  0  0  0  0
    1.5005    2.3625   11.3845 N   0  0  0  0  0  0  0  0  0  0  0  0
    0.3312    2.7571   10.7917 C   0  0  0  0  0  0  0  0  0  0  0  0
    0.5282    3.6989    9.8902 N   0  0  0  0  0  0  0  0  0  0  0  0
    1.8930    3.8940    9.8769 C   0  0  0  0  0  0  0  0  0  0  0  0
    2.7221    4.7552    9.1396 C   0  0  0  0  0  0  0  0  0  0  0  0
    2.2396    5.6415    8.1837 N   0  0  0  0  0  0  0  0  0  0  0  0
    4.0523    4.7406    9.3876 N   0  0  0  0  0  0  0  0  0  0  0  0
    4.5211    3.8774   10.3151 C   0  0  0  0  0  0  0  0  0  0  0  0
    3.8292    3.0048   11.0775 N   0  0  0  0  0  0  0  0  0  0  0  0
    2.5160    3.0730   10.8016 C   0  0  0  0  0  0  0  0  0  0  0  0
    1.2468    5.8259    8.2783 H   0  0  0  0  0  0  0  0  0  0  0  0
    2.8567    6.4300    8.0490 H   0  0  0  0  0  0  0  0  0  0  0  0
   -0.5684   -1.3313   11.7139 C   0  0  0  0  0  0  0  0  0  0  0  0
   -0.4625   -2.7041   14.0535 C   0  0  0  0  0  0  0  0  0  0  0  0
   -1.2285   -2.8584   12.4276 S   0  0  0  0  0  0  0  0  0  0  0  0
   -2.9278   -2.3296   12.8363 C   0  0  0  0  0  0  0  0  0  0  0  0
   -3.4353   -0.9982   12.2893 C   0  0  0  0  0  0  0  0  0  0  0  0
   -4.4068   -1.1618   11.1145 C   0  0  2  0  0  0  0  0  0  0  0  0
   -4.5064   -2.5987   10.6973 N   0  0  0  0  0  0  0  0  0  0  0  0
   -3.6302   -2.7418   10.1682 H   0  0  0  0  0  0  0  0  0  0  0  0
   -5.1704   -2.5974    9.9169 H   0  0  0  0  0  0  0  0  0  0  0  0
   -3.8629   -0.2953    9.9173 C   0  0  0  0  0  0  0  0  0  0  0  0
   -4.5202   -0.4087    8.8386 O   0  0  0  0  0  0  0  0  0  0  0  0
   -2.8517    0.4132   10.1849 O   0  0  0  0  0  0  0  0  0  0  0  0
    0.5906   -1.1874   13.4521 H   0  0  0  0  0  0  0  0  0  0  0  0
    2.7015    1.4588   12.7477 H   0  0  0  0  0  0  0  0  0  0  0  0
    0.5002    2.6074   13.8197 H   0  0  0  0  0  0  0  0  0  0  0  0
   -1.1413    1.0951   12.6553 H   0  0  0  0  0  0  0  0  0  0  0  0
   -0.5946    2.3640   11.0230 H   0  0  0  0  0  0  0  0  0  0  0  0
    5.5429    3.8865   10.4597 H   0  0  0  0  0  0  0  0  0  0  0  0
   -1.3919   -0.7222   11.4046 H   0  0  0  0  0  0  0  0  0  0  0  0
    0.0626   -1.6204   10.8996 H   0  0  0  0  0  0  0  0  0  0  0  0
   -0.7374   -3.5429   14.6583 H   0  0  0  0  0  0  0  0  0  0  0  0
   -0.7974   -1.8020   14.5214 H   0  0  0  0  0  0  0  0  0  0  0  0
    0.6016   -2.6760   13.9452 H   0  0  0  0  0  0  0  0  0  0  0  0
   -2.9926   -2.2765   13.9030 H   0  0  0  0  0  0  0  0  0  0  0  0
   -3.5477   -3.0589   12.3580 H   0  0  0  0  0  0  0  0  0  0  0  0
   -2.5954   -0.4233   11.9591 H   0  0  0  0  0  0  0  0  0  0  0  0
   -3.9686   -0.5113   13.0789 H   0  0  0  0  0  0  0  0  0  0  0  0
   -5.3844   -0.8391   11.4061 H   0  0  0  0  0  0  0  0  0  0  0  0
  1  2  1  0
  1 34  1  1
  2  3  1  0
  3  4  1  0
  3 10  1  0
  3 35  1  1
  4  5  1  0
  4  6  1  0
  4 36  1  1
  5  8  1  0
  6  7  1  0
  6  1  1  0
  6 37  1  6
  7  9  1  0
 10 11  1  0
 11 12  2  0
 11 38  1  0
 12 13  1  0
 13 14  2  0
 14 15  1  0
 14 16  1  0
 15 20  1  0
 15 21  1  0
 16 17  2  0
 17 18  1  0
 17 39  1  0
 18 19  2  0
 19 10  1  0
 19 13  1  0
 22  1  1  0
 22 40  1  0
 22 41  1  0
 23 42  1  0
 23 43  1  0
 23 44  1  0
 24 23  1  1
 24 25  1  0
 24 22  1  0
 25 26  1  0
 25 45  1  0
 25 46  1  0
 26 27  1  0
 26 47  1  0
 26 48  1  0
 27 28  1  0
 27 31  1  0
 27 49  1  1
 28 29  1  0
 28 30  1  0
 31 32  1  0
 31 33  2  0
M  CHG  2  24   1  32  -1
M  END
>  <minimizedAffinity>  (2) 
-7.57725

>  <mol_id>  (2) 
15841

>  <source_index>  (2) 
1

>  <layer>  (2) 
L3

>  <uniprot>  (2) 
Q9NR22

>  <paff>  (2) 
6.1197999999999997

>  <smiles>  (2) 
C[S+](CC[C@H](N)C([O-])=O)C[C@H]1O[C@H]([C@H](O)[C@@H]1O)n1cnc2c(N)ncnc12

$$$$
L3:Q9NR22:30312
     RDKit          3D

 69 72  0  0  0  0  0  0  0  0999 V2000
    1.3303    2.5670   10.6725 C   0  0  0  0  0  0  0  0  0  0  0  0
    0.4246    3.2200   11.5218 C   0  0  0  0  0  0  0  0  0  0  0  0
   -0.8812    2.7460   11.6637 C   0  0  0  0  0  0  0  0  0  0  0  0
   -1.2781    1.6106   10.9650 C   0  0  0  0  0  0  0  0  0  0  0  0
   -0.4042    0.9697   10.0904 C   0  0  0  0  0  0  0  0  0  0  0  0
    0.8996    1.4499    9.9443 C   0  0  0  0  0  0  0  0  0  0  0  0
    3.1506    4.2564    9.8631 C   0  0  0  0  0  0  0  0  0  0  0  0
    4.5219    4.2338   10.0372 C   0  0  0  0  0  0  0  0  0  0  0  0
    4.8019    3.1202   10.7599 N   0  0  0  0  0  0  0  0  0  0  0  0
    3.7229    2.3863   11.0548 N   0  0  0  0  0  0  0  0  0  0  0  0
    2.6936    3.0743   10.5331 C   0  0  0  0  0  0  0  0  0  0  0  0
    5.7071    2.7908   11.0768 H   0  0  0  0  0  0  0  0  0  0  0  0
    2.3574    5.2567    9.0881 C   0  0  0  0  0  0  0  0  0  0  0  0
    2.9915    5.5371    7.7963 N   0  0  0  0  0  0  0  0  0  0  0  0
    3.8127    4.9253    7.7312 H   0  0  0  0  0  0  0  0  0  0  0  0
    2.1480    5.1678    6.6478 C   0  0  0  0  0  0  0  0  0  0  0  0
    1.1780    6.2960    6.2215 C   0  0  0  0  0  0  0  0  0  0  0  0
   -1.0654    6.9244    5.5339 C   0  0  0  0  0  0  0  0  0  0  0  0
   -0.2022    5.8352    5.9803 N   0  0  0  0  0  0  0  0  0  0  0  0
   -0.5764    5.4713    6.8567 H   0  0  0  0  0  0  0  0  0  0  0  0
   -2.5688    1.1702   11.1005 O   0  0  0  0  0  0  0  0  0  0  0  0
   -2.7244   -0.0109   11.9250 C   0  0  1  0  0  0  0  0  0  0  0  0
   -1.4282   -0.6442   12.4813 C   0  0  0  0  0  0  0  0  0  0  0  0
   -1.6355    0.1811   13.7702 C   0  0  1  0  0  0  0  0  0  0  0  0
   -3.1284    0.2758   13.3886 C   0  0  0  0  0  0  0  0  0  0  0  0
   -1.3643   -0.4954   15.0146 O   0  0  0  0  0  0  0  0  0  0  0  0
   -0.0365   -0.3687   15.5134 C   0  0  0  0  0  0  0  0  0  0  0  0
   -0.0619    0.3753   16.8462 C   0  0  0  0  0  0  0  0  0  0  0  0
    1.2447    1.1195   17.1941 C   0  0  0  0  0  0  0  0  0  0  0  0
    1.9476    1.6951   15.9587 C   0  0  0  0  0  0  0  0  0  0  0  0
    3.2734    2.3821   16.3057 C   0  0  0  0  0  0  0  0  0  0  0  0
    3.3446    2.8962   17.7431 C   0  0  0  0  0  0  0  0  0  0  0  0
    1.9832    3.3636   18.2344 C   0  0  0  0  0  0  0  0  0  0  0  0
    0.9456    2.2387   18.2148 C   0  0  0  0  0  0  0  0  0  0  0  0
    0.7256    4.0568   12.0455 H   0  0  0  0  0  0  0  0  0  0  0  0
   -1.5470    3.2346   12.2825 H   0  0  0  0  0  0  0  0  0  0  0  0
   -0.7175    0.1457    9.5539 H   0  0  0  0  0  0  0  0  0  0  0  0
    1.5497    0.9789    9.2959 H   0  0  0  0  0  0  0  0  0  0  0  0
    5.1999    4.9281    9.6861 H   0  0  0  0  0  0  0  0  0  0  0  0
    1.3741    4.8699    8.9194 H   0  0  0  0  0  0  0  0  0  0  0  0
    2.3090    6.1657    9.6505 H   0  0  0  0  0  0  0  0  0  0  0  0
    2.7835    4.9336    5.8195 H   0  0  0  0  0  0  0  0  0  0  0  0
    1.5529    4.3295    6.9445 H   0  0  0  0  0  0  0  0  0  0  0  0
    1.1568    7.0334    6.9966 H   0  0  0  0  0  0  0  0  0  0  0  0
    1.5426    6.6865    5.2944 H   0  0  0  0  0  0  0  0  0  0  0  0
   -0.6909    7.3221    4.6139 H   0  0  0  0  0  0  0  0  0  0  0  0
   -1.0798    7.6951    6.2760 H   0  0  0  0  0  0  0  0  0  0  0  0
   -2.0582    6.5544    5.3846 H   0  0  0  0  0  0  0  0  0  0  0  0
   -3.3517   -0.5529   11.2485 H   0  0  0  0  0  0  0  0  0  0  0  0
   -0.5430   -0.3965   11.9336 H   0  0  0  0  0  0  0  0  0  0  0  0
   -1.2970   -1.7056   12.5149 H   0  0  0  0  0  0  0  0  0  0  0  0
   -1.0420    1.0483   13.9716 H   0  0  0  0  0  0  0  0  0  0  0  0
   -3.5663    1.2392   13.5471 H   0  0  0  0  0  0  0  0  0  0  0  0
   -3.8685   -0.3145   13.8872 H   0  0  0  0  0  0  0  0  0  0  0  0
    0.5576    0.1779   14.8111 H   0  0  0  0  0  0  0  0  0  0  0  0
    0.3850   -1.3418   15.6563 H   0  0  0  0  0  0  0  0  0  0  0  0
   -0.2569   -0.3360   17.6214 H   0  0  0  0  0  0  0  0  0  0  0  0
   -0.8222    1.1233   16.7604 H   0  0  0  0  0  0  0  0  0  0  0  0
    1.9171    0.4053   17.6216 H   0  0  0  0  0  0  0  0  0  0  0  0
    1.3000    2.4115   15.4979 H   0  0  0  0  0  0  0  0  0  0  0  0
    2.1655    0.8811   15.2993 H   0  0  0  0  0  0  0  0  0  0  0  0
    3.4065    3.2121   15.6437 H   0  0  0  0  0  0  0  0  0  0  0  0
    4.0427    1.6459   16.1998 H   0  0  0  0  0  0  0  0  0  0  0  0
    4.0303    3.7165   17.7857 H   0  0  0  0  0  0  0  0  0  0  0  0
    3.6717    2.0942   18.3713 H   0  0  0  0  0  0  0  0  0  0  0  0
    1.6428    4.1577   17.6032 H   0  0  0  0  0  0  0  0  0  0  0  0
    2.0936    3.6918   19.2468 H   0  0  0  0  0  0  0  0  0  0  0  0
   -0.0066    2.6646   17.9764 H   0  0  0  0  0  0  0  0  0  0  0  0
    0.9659    1.7848   19.1835 H   0  0  0  0  0  0  0  0  0  0  0  0
  1  2  2  0
  2  3  1  0
  2 35  1  0
  3  4  2  0
  3 36  1  0
  4 21  1  0
  4  5  1  0
  5  6  2  0
  5 37  1  0
  6  1  1  0
  6 38  1  0
  7  8  2  0
  8  9  1  0
  8 39  1  0
  9 10  1  0
  9 12  1  0
 10 11  2  0
 11  1  1  0
 11  7  1  0
 13  7  1  0
 13 40  1  0
 13 41  1  0
 14 13  1  0
 14 15  1  0
 16 14  1  0
 16 42  1  0
 16 43  1  0
 17 16  1  0
 17 44  1  0
 17 45  1  0
 18 19  1  0
 18 46  1  0
 18 47  1  0
 18 48  1  0
 19 17  1  0
 19 20  1  0
 21 22  1  0
 22 23  1  0
 22 49  1  6
 23 24  1  0
 23 50  1  0
 23 51  1  0
 24 26  1  0
 24 25  1  0
 24 52  1  6
 25 22  1  0
 25 53  1  0
 25 54  1  0
 26 27  1  0
 27 28  1  0
 27 55  1  0
 27 56  1  0
 28 29  1  0
 28 57  1  0
 28 58  1  0
 29 30  1  0
 29 59  1  0
 30 31  1  0
 30 60  1  0
 30 61  1  0
 31 32  1  0
 31 62  1  0
 31 63  1  0
 32 33  1  0
 32 64  1  0
 32 65  1  0
 33 34  1  0
 33 66  1  0
 33 67  1  0
 34 29  1  0
 34 68  1  0
 34 69  1  0
M  END
>  <minimizedAffinity>  (3) 
-7.64293

>  <mol_id>  (3) 
30312

>  <source_index>  (3) 
2

>  <layer>  (3) 
L3

>  <uniprot>  (3) 
Q9NR22

>  <paff>  (3) 
6.6516999999999999

>  <smiles>  (3) 
CNCCNCc1c[nH]nc1-c1ccc(O[C@H]2C[C@H](OCCC3CCCCC3)C2)cc1

$$$$
L3:Q9NR22:47363
     RDKit          3D

 68 71  0  0  0  0  0  0  0  0999 V2000
    0.7402   -4.6383   11.3844 C   0  0  0  0  0  0  0  0  0  0  0  0
    0.6792   -6.0455   11.2737 C   0  0  0  0  0  0  0  0  0  0  0  0
    1.3422   -6.7001   10.2371 C   0  0  0  0  0  0  0  0  0  0  0  0
    1.2726   -8.4119   10.1147 Cl  0  0  0  0  0  0  0  0  0  0  0  0
    2.0498   -5.9391    9.3301 C   0  0  0  0  0  0  0  0  0  0  0  0
    2.0955   -4.5655    9.4335 C   0  0  0  0  0  0  0  0  0  0  0  0
    1.4335   -3.8634   10.4329 C   0  0  0  0  0  0  0  0  0  0  0  0
    1.4730   -2.3663   10.4589 C   0  0  0  0  0  0  0  0  0  0  0  0
    2.8454   -4.0052    8.4405 O   0  0  0  0  0  0  0  0  0  0  0  0
    3.2447   -5.1690    7.6651 C   0  0  2  0  0  0  0  0  0  0  0  0
    2.6022   -5.0276    6.2813 C   0  0  0  0  0  0  0  0  0  0  0  0
    2.7514   -6.3984    8.2563 O   0  0  0  0  0  0  0  0  0  0  0  0
    4.8008   -5.2287    7.6393 C   0  0  1  0  0  0  0  0  0  0  0  0
    5.3534   -5.9731    6.4061 C   0  0  0  0  0  0  0  0  0  0  0  0
    6.8246   -5.6402    6.1682 C   0  0  0  0  0  0  0  0  0  0  0  0
    6.9846   -4.1556    5.7832 C   0  0  1  0  0  0  0  0  0  0  0  0
    6.0241   -3.2353    6.5771 C   0  0  0  0  0  0  0  0  0  0  0  0
    5.4884   -3.8635    7.8630 C   0  0  0  0  0  0  0  0  0  0  0  0
    8.3681   -3.6407    5.7884 N   0  0  0  0  0  0  0  0  0  0  0  0
    8.4936   -2.2142    6.0818 C   0  0  0  0  0  0  0  0  0  0  0  0
    9.2438   -4.4141    6.6724 C   0  0  0  0  0  0  0  0  0  0  0  0
   -1.2771   -3.6401   12.2798 N   0  0  0  0  0  0  0  0  0  0  0  0
    0.0139   -4.0452   12.5346 C   0  0  0  0  0  0  0  0  0  0  0  0
    0.5975   -3.8940   13.5981 O   0  0  0  0  0  0  0  0  0  0  0  0
   -1.6175   -3.6547   11.3282 H   0  0  0  0  0  0  0  0  0  0  0  0
   -2.0555   -2.9157   13.2706 C   0  0  0  0  0  0  0  0  0  0  0  0
   -1.8118    2.7285   11.8701 C   0  0  0  0  0  0  0  0  0  0  0  0
   -1.8456    1.3056   12.3332 C   0  0  0  0  0  0  0  0  0  0  0  0
   -1.1857    0.8534   13.4098 C   0  0  0  0  0  0  0  0  0  0  0  0
   -1.2449   -0.5504   13.7922 C   0  0  0  0  0  0  0  0  0  0  0  0
   -0.4738   -0.8882   15.0368 C   0  0  0  0  0  0  0  0  0  0  0  0
   -1.9498   -1.4342   13.0464 C   0  0  0  0  0  0  0  0  0  0  0  0
   -2.7631   -0.9033   11.9004 C   0  0  0  0  0  0  0  0  0  0  0  0
   -3.5590   -1.5947   11.2743 O   0  0  0  0  0  0  0  0  0  0  0  0
   -2.6106    0.4295   11.6074 N   0  0  0  0  0  0  0  0  0  0  0  0
   -3.1491    0.7552   10.8138 H   0  0  0  0  0  0  0  0  0  0  0  0
    0.1408   -6.5917   11.9642 H   0  0  0  0  0  0  0  0  0  0  0  0
    2.0594   -2.0107    9.6376 H   0  0  0  0  0  0  0  0  0  0  0  0
    1.9102   -2.0370   11.3783 H   0  0  0  0  0  0  0  0  0  0  0  0
    0.4776   -1.9818   10.3794 H   0  0  0  0  0  0  0  0  0  0  0  0
    2.9475   -4.1270    5.8181 H   0  0  0  0  0  0  0  0  0  0  0  0
    1.5378   -4.9902    6.3844 H   0  0  0  0  0  0  0  0  0  0  0  0
    2.8725   -5.8668    5.6751 H   0  0  0  0  0  0  0  0  0  0  0  0
    5.0631   -5.8173    8.4935 H   0  0  0  0  0  0  0  0  0  0  0  0
    4.7878   -5.6868    5.5441 H   0  0  0  0  0  0  0  0  0  0  0  0
    5.2701   -7.0252    6.5822 H   0  0  0  0  0  0  0  0  0  0  0  0
    7.2009   -6.2525    5.3755 H   0  0  0  0  0  0  0  0  0  0  0  0
    7.3724   -5.8262    7.0683 H   0  0  0  0  0  0  0  0  0  0  0  0
    6.6974   -4.1288    4.7528 H   0  0  0  0  0  0  0  0  0  0  0  0
    5.1928   -2.9931    5.9485 H   0  0  0  0  0  0  0  0  0  0  0  0
    6.5869   -2.3716    6.8638 H   0  0  0  0  0  0  0  0  0  0  0  0
    4.7769   -3.1926    8.2973 H   0  0  0  0  0  0  0  0  0  0  0  0
    6.3277   -4.0341    8.5044 H   0  0  0  0  0  0  0  0  0  0  0  0
    7.8508   -1.6584    5.4316 H   0  0  0  0  0  0  0  0  0  0  0  0
    9.5071   -1.9066    5.9297 H   0  0  0  0  0  0  0  0  0  0  0  0
    8.2148   -2.0334    7.0989 H   0  0  0  0  0  0  0  0  0  0  0  0
    9.1448   -5.4560    6.4500 H   0  0  0  0  0  0  0  0  0  0  0  0
    8.9669   -4.2389    7.6910 H   0  0  0  0  0  0  0  0  0  0  0  0
   10.2592   -4.1122    6.5218 H   0  0  0  0  0  0  0  0  0  0  0  0
   -3.0814   -3.2103   13.1958 H   0  0  0  0  0  0  0  0  0  0  0  0
   -1.6744   -3.1453   14.2437 H   0  0  0  0  0  0  0  0  0  0  0  0
   -1.1828    3.3003   12.5200 H   0  0  0  0  0  0  0  0  0  0  0  0
   -2.8025    3.1325   11.8863 H   0  0  0  0  0  0  0  0  0  0  0  0
   -1.4259    2.7700   10.8730 H   0  0  0  0  0  0  0  0  0  0  0  0
   -0.6271    1.5108   13.9762 H   0  0  0  0  0  0  0  0  0  0  0  0
   -0.0134   -0.0027   15.4225 H   0  0  0  0  0  0  0  0  0  0  0  0
    0.2809   -1.6100   14.8039 H   0  0  0  0  0  0  0  0  0  0  0  0
   -1.1398   -1.2924   15.7703 H   0  0  0  0  0  0  0  0  0  0  0  0
  1  2  2  0
  2  3  1  0
  2 37  1  0
  3  4  1  0
  3  5  2  0
  5  6  1  0
  6  7  2  0
  6  9  1  0
  7  8  1  0
  7  1  1  0
  8 38  1  0
  8 39  1  0
  8 40  1  0
  9 10  1  0
 10 11  1  6
 10 13  1  0
 10 12  1  0
 11 41  1  0
 11 42  1  0
 11 43  1  0
 12  5  1  0
 13 14  1  0
 13 44  1  1
 14 15  1  0
 14 45  1  0
 14 46  1  0
 15 16  1  0
 15 47  1  0
 15 48  1  0
 16 19  1  0
 16 17  1  0
 16 49  1  6
 17 18  1  0
 17 50  1  0
 17 51  1  0
 18 13  1  0
 18 52  1  0
 18 53  1  0
 19 20  1  0
 19 21  1  0
 20 54  1  0
 20 55  1  0
 20 56  1  0
 21 57  1  0
 21 58  1  0
 21 59  1  0
 22 23  1  0
 22 25  1  0
 23 24  2  0
 23  1  1  0
 26 22  1  0
 26 60  1  0
 26 61  1  0
 27 28  1  0
 27 62  1  0
 27 63  1  0
 27 64  1  0
 28 29  2  0
 29 30  1  0
 29 65  1  0
 30 31  1  0
 30 32  2  0
 31 66  1  0
 31 67  1  0
 31 68  1  0
 32 26  1  0
 32 33  1  0
 33 34  2  0
 33 35  1  0
 35 28  1  0
 35 36  1  0
M  END
>  <minimizedAffinity>  (4) 
-7.47137

>  <mol_id>  (4) 
47363

>  <source_index>  (4) 
3

>  <layer>  (4) 
L3

>  <uniprot>  (4) 
Q9NR22

>  <paff>  (4) 
6

>  <smiles>  (4) 
Cc1cc(C)c(CNC(=O)c2cc(Cl)c3c(c2C)O[C@@](C)([C@H]2CC[C@H](N(C)C)CC2)O3)c(=O)[nH]1

$$$$
L3:Q9NR22:50566
     RDKit          3D

 68 71  0  0  0  0  0  0  0  0999 V2000
    1.0673   -4.6851   11.5145 C   0  0  0  0  0  0  0  0  0  0  0  0
    1.2703   -6.0823   11.5721 C   0  0  0  0  0  0  0  0  0  0  0  0
    2.0037   -6.7265   10.5760 C   0  0  0  0  0  0  0  0  0  0  0  0
    2.2647   -8.5935   10.6550 Br  0  0  0  0  0  0  0  0  0  0  0  0
    2.5088   -5.9693    9.5401 C   0  0  0  0  0  0  0  0  0  0  0  0
    2.3055   -4.6074    9.4855 C   0  0  0  0  0  0  0  0  0  0  0  0
    1.5969   -3.9161   10.4585 C   0  0  0  0  0  0  0  0  0  0  0  0
    1.3822   -2.4365   10.3474 C   0  0  0  0  0  0  0  0  0  0  0  0
    2.8654   -4.0539    8.3703 O   0  0  0  0  0  0  0  0  0  0  0  0
    3.4465   -5.2128    7.7167 C   0  0  1  0  0  0  0  0  0  0  0  0
    4.9617   -4.9776    7.6626 C   0  0  0  0  0  0  0  0  0  0  0  0
    3.2198   -6.4275    8.4722 O   0  0  0  0  0  0  0  0  0  0  0  0
    2.8350   -5.3510    6.2908 C   0  0  1  0  0  0  0  0  0  0  0  0
    1.4385   -4.7012    6.1808 C   0  0  0  0  0  0  0  0  0  0  0  0
    1.0147   -4.3640    4.7458 C   0  0  0  0  0  0  0  0  0  0  0  0
    1.6862   -5.2643    3.6894 C   0  0  1  0  0  0  0  0  0  0  0  0
    3.1978   -4.9392    3.7668 C   0  0  0  0  0  0  0  0  0  0  0  0
    3.7632   -4.8068    5.1900 C   0  0  0  0  0  0  0  0  0  0  0  0
    1.3708   -6.7071    3.8673 N   0  0  0  0  0  0  0  0  0  0  0  0
   -0.0201   -7.0205    3.5110 C   0  0  0  0  0  0  0  0  0  0  0  0
    2.2528   -7.5689    3.0697 C   0  0  0  0  0  0  0  0  0  0  0  0
   -1.0261   -3.6799   12.1842 N   0  0  0  0  0  0  0  0  0  0  0  0
    0.2400   -4.0540   12.5755 C   0  0  0  0  0  0  0  0  0  0  0  0
    0.6887   -3.9038   13.7028 O   0  0  0  0  0  0  0  0  0  0  0  0
   -1.3529   -3.8938   11.2521 H   0  0  0  0  0  0  0  0  0  0  0  0
   -1.9456   -3.0326   13.1001 C   0  0  0  0  0  0  0  0  0  0  0  0
   -2.0318    2.6916   12.0448 C   0  0  0  0  0  0  0  0  0  0  0  0
   -1.9742    1.2480   12.4349 C   0  0  0  0  0  0  0  0  0  0  0  0
   -1.2694    0.7820   13.4754 C   0  0  0  0  0  0  0  0  0  0  0  0
   -1.2427   -0.6398   13.7958 C   0  0  0  0  0  0  0  0  0  0  0  0
   -0.4521   -0.9783   15.0275 C   0  0  0  0  0  0  0  0  0  0  0  0
   -1.9070   -1.5292   13.0187 C   0  0  0  0  0  0  0  0  0  0  0  0
   -2.7489   -0.9878   11.8942 C   0  0  0  0  0  0  0  0  0  0  0  0
   -3.4764   -1.7070   11.2149 O   0  0  0  0  0  0  0  0  0  0  0  0
   -2.6965    0.3647   11.6759 N   0  0  0  0  0  0  0  0  0  0  0  0
   -3.2573    0.6960   10.9014 H   0  0  0  0  0  0  0  0  0  0  0  0
    0.8746   -6.6278   12.3537 H   0  0  0  0  0  0  0  0  0  0  0  0
    1.8742   -2.0695    9.4709 H   0  0  0  0  0  0  0  0  0  0  0  0
    1.7851   -1.9517   11.2120 H   0  0  0  0  0  0  0  0  0  0  0  0
    0.3340   -2.2323   10.2800 H   0  0  0  0  0  0  0  0  0  0  0  0
    5.1645   -4.0845    7.1094 H   0  0  0  0  0  0  0  0  0  0  0  0
    5.4348   -5.8091    7.1834 H   0  0  0  0  0  0  0  0  0  0  0  0
    5.3425   -4.8752    8.6573 H   0  0  0  0  0  0  0  0  0  0  0  0
    2.7237   -6.4035    6.1334 H   0  0  0  0  0  0  0  0  0  0  0  0
    1.4436   -3.7958    6.7510 H   0  0  0  0  0  0  0  0  0  0  0  0
    0.7351   -5.4184    6.5493 H   0  0  0  0  0  0  0  0  0  0  0  0
    1.2777   -3.3468    4.5432 H   0  0  0  0  0  0  0  0  0  0  0  0
   -0.0408   -4.5259    4.6785 H   0  0  0  0  0  0  0  0  0  0  0  0
    1.3088   -5.0623    2.7087 H   0  0  0  0  0  0  0  0  0  0  0  0
    3.3646   -4.0138    3.2562 H   0  0  0  0  0  0  0  0  0  0  0  0
    3.7047   -5.7690    3.3203 H   0  0  0  0  0  0  0  0  0  0  0  0
    3.9427   -3.7701    5.3847 H   0  0  0  0  0  0  0  0  0  0  0  0
    4.6562   -5.3953    5.2221 H   0  0  0  0  0  0  0  0  0  0  0  0
   -0.6822   -6.4030    4.0813 H   0  0  0  0  0  0  0  0  0  0  0  0
   -0.2197   -8.0498    3.7245 H   0  0  0  0  0  0  0  0  0  0  0  0
   -0.1711   -6.8369    2.4677 H   0  0  0  0  0  0  0  0  0  0  0  0
    3.2731   -7.3577    3.3130 H   0  0  0  0  0  0  0  0  0  0  0  0
    2.0883   -7.3820    2.0291 H   0  0  0  0  0  0  0  0  0  0  0  0
    2.0396   -8.5949    3.2859 H   0  0  0  0  0  0  0  0  0  0  0  0
   -2.9386   -3.3598   12.8724 H   0  0  0  0  0  0  0  0  0  0  0  0
   -1.6494   -3.3043   14.0917 H   0  0  0  0  0  0  0  0  0  0  0  0
   -1.4277    3.2666   12.7152 H   0  0  0  0  0  0  0  0  0  0  0  0
   -3.0443    3.0342   12.0940 H   0  0  0  0  0  0  0  0  0  0  0  0
   -1.6646    2.8062   11.0463 H   0  0  0  0  0  0  0  0  0  0  0  0
   -0.7352    1.4427   14.0612 H   0  0  0  0  0  0  0  0  0  0  0  0
   -0.0354   -0.0837   15.4409 H   0  0  0  0  0  0  0  0  0  0  0  0
    0.3371   -1.6536   14.7704 H   0  0  0  0  0  0  0  0  0  0  0  0
   -1.0948   -1.4387   15.7485 H   0  0  0  0  0  0  0  0  0  0  0  0
  1  2  2  0
  2  3  1  0
  2 37  1  0
  3  4  1  0
  3  5  2  0
  5  6  1  0
  6  7  2  0
  6  9  1  0
  7  8  1  0
  7  1  1  0
  8 38  1  0
  8 39  1  0
  8 40  1  0
  9 10  1  0
 10 11  1  6
 10 13  1  0
 10 12  1  0
 11 41  1  0
 11 42  1  0
 11 43  1  0
 12  5  1  0
 13 14  1  0
 13 44  1  6
 14 15  1  0
 14 45  1  0
 14 46  1  0
 15 16  1  0
 15 47  1  0
 15 48  1  0
 16 19  1  0
 16 17  1  0
 16 49  1  6
 17 18  1  0
 17 50  1  0
 17 51  1  0
 18 13  1  0
 18 52  1  0
 18 53  1  0
 19 20  1  0
 19 21  1  0
 20 54  1  0
 20 55  1  0
 20 56  1  0
 21 57  1  0
 21 58  1  0
 21 59  1  0
 22 23  1  0
 22 25  1  0
 23 24  2  0
 23  1  1  0
 26 22  1  0
 26 60  1  0
 26 61  1  0
 27 28  1  0
 27 62  1  0
 27 63  1  0
 27 64  1  0
 28 29  2  0
 29 30  1  0
 29 65  1  0
 30 31  1  0
 30 32  2  0
 31 66  1  0
 31 67  1  0
 31 68  1  0
 32 26  1  0
 32 33  1  0
 33 34  2  0
 33 35  1  0
 35 28  1  0
 35 36  1  0
M  END
>  <minimizedAffinity>  (5) 
-7.77429

>  <mol_id>  (5) 
50566

>  <source_index>  (5) 
4

>  <layer>  (5) 
L3

>  <uniprot>  (5) 
Q9NR22

>  <paff>  (5) 
6

>  <smiles>  (5) 
Cc1cc(C)c(CNC(=O)c2cc(Br)c3c(c2C)OC(C)(C2CCC(N(C)C)CC2)O3)c(=O)[nH]1

$$$$
L3:Q9NR22:93482
     RDKit          3D

 55 57  0  0  0  0  0  0  0  0999 V2000
   -0.5829   -1.7508   13.8070 C   0  0  0  0  0  0  0  0  0  0  0  0
   -1.7390   -2.5277   13.9915 C   0  0  0  0  0  0  0  0  0  0  0  0
   -2.5102   -2.3974   15.1496 C   0  0  0  0  0  0  0  0  0  0  0  0
   -2.1420   -1.4858   16.1375 C   0  0  0  0  0  0  0  0  0  0  0  0
   -0.9982   -0.7079   15.9717 C   0  0  0  0  0  0  0  0  0  0  0  0
   -0.2185   -0.8545   14.8223 C   0  0  0  0  0  0  0  0  0  0  0  0
    0.2314   -1.8923   12.5392 C   0  0  0  0  0  0  0  0  0  0  0  0
    0.0918   -0.7554   11.6185 N   0  0  0  0  0  0  0  0  0  0  0  0
    1.2077   -0.6089   10.6934 C   0  0  0  0  0  0  0  0  0  0  0  0
   -1.2278   -0.7044   10.9677 C   0  0  0  0  0  0  0  0  0  0  0  0
   -2.2993    0.3119   11.4289 C   0  0  1  0  0  0  0  0  0  0  0  0
   -2.4337    1.3122   10.4024 O   0  0  0  0  0  0  0  0  0  0  0  0
   -3.3352    1.6744   10.5320 H   0  0  0  0  0  0  0  0  0  0  0  0
   -3.6917   -0.2972   11.6817 C   0  0  0  0  0  0  0  0  0  0  0  0
   -5.1550   -1.6078   10.2383 C   0  0  0  0  0  0  0  0  0  0  0  0
   -3.8813   -1.5702   10.9516 N   0  0  0  0  0  0  0  0  0  0  0  0
   -3.8759   -2.3322   11.6328 H   0  0  0  0  0  0  0  0  0  0  0  0
    0.8787   -0.0456   14.6824 O   0  0  0  0  0  0  0  0  0  0  0  0
    0.5074    1.3387   14.7527 C   0  0  0  0  0  0  0  0  0  0  0  0
    0.9202    2.0354   13.4772 C   0  0  0  0  0  0  0  0  0  0  0  0
   -0.0447    2.5753   12.6198 C   0  0  0  0  0  0  0  0  0  0  0  0
    0.3370    3.2190   11.4395 C   0  0  0  0  0  0  0  0  0  0  0  0
    1.6923    3.3474   11.0893 C   0  0  0  0  0  0  0  0  0  0  0  0
    2.6573    2.7875   11.9412 C   0  0  0  0  0  0  0  0  0  0  0  0
    4.3504    2.8096   11.5795 Cl  0  0  0  0  0  0  0  0  0  0  0  0
    2.2723    2.1444   13.1265 C   0  0  0  0  0  0  0  0  0  0  0  0
    2.0114    4.0375    9.8366 C   0  0  0  0  0  0  0  0  0  0  0  0
    2.1695    5.3427    9.7262 N   0  0  0  0  0  0  0  0  0  0  0  0
    2.5191    5.6663    8.4303 C   0  0  0  0  0  0  0  0  0  0  0  0
    2.6521    4.6011    7.5667 C   0  0  0  0  0  0  0  0  0  0  0  0
    2.3565    3.1380    8.4055 S   0  0  0  0  0  0  0  0  0  0  0  0
   -2.0219   -3.2022   13.2635 H   0  0  0  0  0  0  0  0  0  0  0  0
   -3.3545   -2.9777   15.2737 H   0  0  0  0  0  0  0  0  0  0  0  0
   -2.7154   -1.3873   16.9899 H   0  0  0  0  0  0  0  0  0  0  0  0
   -0.7277   -0.0249   16.6965 H   0  0  0  0  0  0  0  0  0  0  0  0
    1.2628   -1.9844   12.8085 H   0  0  0  0  0  0  0  0  0  0  0  0
   -0.1350   -2.7571   12.0266 H   0  0  0  0  0  0  0  0  0  0  0  0
    1.0361    0.2350   10.0583 H   0  0  0  0  0  0  0  0  0  0  0  0
    1.2945   -1.4927   10.0965 H   0  0  0  0  0  0  0  0  0  0  0  0
    2.1121   -0.4614   11.2459 H   0  0  0  0  0  0  0  0  0  0  0  0
   -1.0494   -0.5104    9.9307 H   0  0  0  0  0  0  0  0  0  0  0  0
   -1.6615   -1.6451   11.2358 H   0  0  0  0  0  0  0  0  0  0  0  0
   -1.9628    0.7067   12.3647 H   0  0  0  0  0  0  0  0  0  0  0  0
   -3.8034   -0.4804   12.7300 H   0  0  0  0  0  0  0  0  0  0  0  0
   -4.4251    0.3978   11.3297 H   0  0  0  0  0  0  0  0  0  0  0  0
   -5.1838   -0.8172    9.5179 H   0  0  0  0  0  0  0  0  0  0  0  0
   -5.9577   -1.4849   10.9350 H   0  0  0  0  0  0  0  0  0  0  0  0
   -5.2567   -2.5489    9.7393 H   0  0  0  0  0  0  0  0  0  0  0  0
    0.9984    1.7980   15.5851 H   0  0  0  0  0  0  0  0  0  0  0  0
   -0.5525    1.4182   14.8760 H   0  0  0  0  0  0  0  0  0  0  0  0
   -1.0452    2.4977   12.8606 H   0  0  0  0  0  0  0  0  0  0  0  0
   -0.3877    3.6062   10.8151 H   0  0  0  0  0  0  0  0  0  0  0  0
    2.9937    1.7466   13.7480 H   0  0  0  0  0  0  0  0  0  0  0  0
    2.6707    6.6415    8.1285 H   0  0  0  0  0  0  0  0  0  0  0  0
    2.8933    4.6740    6.5659 H   0  0  0  0  0  0  0  0  0  0  0  0
  1  2  2  0
  2  3  1  0
  2 32  1  0
  3  4  2  0
  3 33  1  0
  4  5  1  0
  4 34  1  0
  5  6  2  0
  5 35  1  0
  6 18  1  0
  6  1  1  0
  7  1  1  0
  7 36  1  0
  7 37  1  0
  8  9  1  0
  8  7  1  0
  9 38  1  0
  9 39  1  0
  9 40  1  0
 10  8  1  0
 10 41  1  0
 10 42  1  0
 11 12  1  0
 11 10  1  0
 11 43  1  1
 12 13  1  0
 14 11  1  0
 14 44  1  0
 14 45  1  0
 15 16  1  0
 15 46  1  0
 15 47  1  0
 15 48  1  0
 16 14  1  0
 16 17  1  0
 18 19  1  0
 19 20  1  0
 19 49  1  0
 19 50  1  0
 20 21  2  0
 21 22  1  0
 21 51  1  0
 22 23  2  0
 22 52  1  0
 23 27  1  0
 23 24  1  0
 24 25  1  0
 24 26  2  0
 26 20  1  0
 26 53  1  0
 27 28  2  0
 28 29  1  0
 29 30  2  0
 29 54  1  0
 30 31  1  0
 30 55  1  0
 31 27  1  0
M  END
>  <minimizedAffinity>  (6) 
-6.70419

>  <mol_id>  (6) 
93482

>  <source_index>  (6) 
5

>  <layer>  (6) 
L3

>  <uniprot>  (6) 
Q9NR22

>  <paff>  (6) 
7.1367000000000003

>  <smiles>  (6) 
CNC[C@H](O)CN(C)Cc1ccccc1OCc1ccc(-c2nccs2)c(Cl)c1

$$$$
L3:Q9NR22:98130
     RDKit          3D

 64 65  0  0  0  0  0  0  0  0999 V2000
   -0.8311    1.8605   12.0224 C   0  0  0  0  0  0  0  0  0  0  0  0
    0.1224    0.8941   12.7828 C   0  0  0  0  0  0  0  0  0  0  0  0
    1.0821    0.1375   11.8663 C   0  0  0  0  0  0  0  0  0  0  0  0
    0.3448   -0.7012   10.8037 C   0  0  0  0  0  0  0  0  0  0  0  0
   -0.9612   -0.0398   10.3166 C   0  0  0  0  0  0  0  0  0  0  0  0
   -0.9419    1.4724   10.5213 C   0  0  0  0  0  0  0  0  0  0  0  0
    0.1328   -2.1241   11.2664 C   0  0  0  0  0  0  0  0  0  0  0  0
   -0.8948   -2.4267   12.0749 N   0  0  0  0  0  0  0  0  0  0  0  0
   -0.7843   -3.7475   12.2687 N   0  0  0  0  0  0  0  0  0  0  0  0
    0.2978   -4.2970   11.6605 C   0  0  0  0  0  0  0  0  0  0  0  0
    0.9334   -3.2736   10.9851 C   0  0  0  0  0  0  0  0  0  0  0  0
   -1.4823   -4.2097   12.8415 H   0  0  0  0  0  0  0  0  0  0  0  0
    2.1913   -3.3674   10.1817 C   0  0  0  0  0  0  0  0  0  0  0  0
    2.3792   -4.7389    9.6690 N   0  0  0  0  0  0  0  0  0  0  0  0
    2.1660   -4.7849    8.2174 C   0  0  0  0  0  0  0  0  0  0  0  0
    3.7307   -5.2179   10.0269 C   0  0  0  0  0  0  0  0  0  0  0  0
    3.8003   -5.9487   11.3903 C   0  0  0  0  0  0  0  0  0  0  0  0
    4.3680   -5.1433   12.4812 N   0  0  0  0  0  0  0  0  0  0  0  0
    5.5068   -5.7809   13.1234 C   0  0  0  0  0  0  0  0  0  0  0  0
    4.6390   -4.2284   12.1235 H   0  0  0  0  0  0  0  0  0  0  0  0
   -2.2212    1.7881   12.7076 C   0  0  0  0  0  0  0  0  0  0  0  0
   -2.2433    0.7650   13.7048 O   0  0  0  0  0  0  0  0  0  0  0  0
   -3.9545   -0.1679   12.2581 C   0  0  0  0  0  0  0  0  0  0  0  0
   -3.4368   -0.0143   13.6771 C   0  0  0  0  0  0  0  0  0  0  0  0
   -0.3210    3.3213   12.1227 C   0  0  0  0  0  0  0  0  0  0  0  0
    0.3540    3.7000   10.9187 O   0  0  0  0  0  0  0  0  0  0  0  0
    1.7711    3.7597   11.0689 C   0  0  0  0  0  0  0  0  0  0  0  0
    2.4661    3.0305    9.9330 C   0  0  0  0  0  0  0  0  0  0  0  0
   -0.4721    0.1803   13.3138 H   0  0  0  0  0  0  0  0  0  0  0  0
    0.7198    1.4929   13.4381 H   0  0  0  0  0  0  0  0  0  0  0  0
    1.6831   -0.5163   12.4632 H   0  0  0  0  0  0  0  0  0  0  0  0
    1.6797    0.8611   11.3524 H   0  0  0  0  0  0  0  0  0  0  0  0
    0.9853   -0.7405    9.9474 H   0  0  0  0  0  0  0  0  0  0  0  0
   -1.7832   -0.4527   10.8631 H   0  0  0  0  0  0  0  0  0  0  0  0
   -1.0604   -0.2321    9.2687 H   0  0  0  0  0  0  0  0  0  0  0  0
   -1.8457    1.8854   10.1244 H   0  0  0  0  0  0  0  0  0  0  0  0
   -0.0818    1.8611   10.0172 H   0  0  0  0  0  0  0  0  0  0  0  0
    0.5888   -5.2865   11.6959 H   0  0  0  0  0  0  0  0  0  0  0  0
    3.0241   -3.1061   10.8006 H   0  0  0  0  0  0  0  0  0  0  0  0
    2.1216   -2.6954    9.3519 H   0  0  0  0  0  0  0  0  0  0  0  0
    1.1814   -4.4330    7.9902 H   0  0  0  0  0  0  0  0  0  0  0  0
    2.2731   -5.7923    7.8729 H   0  0  0  0  0  0  0  0  0  0  0  0
    2.8881   -4.1630    7.7310 H   0  0  0  0  0  0  0  0  0  0  0  0
    4.3877   -4.3742   10.0636 H   0  0  0  0  0  0  0  0  0  0  0  0
    4.0145   -5.9294    9.2798 H   0  0  0  0  0  0  0  0  0  0  0  0
    4.4043   -6.8238   11.2708 H   0  0  0  0  0  0  0  0  0  0  0  0
    2.7919   -6.1736   11.6688 H   0  0  0  0  0  0  0  0  0  0  0  0
    5.2149   -6.7404   13.4963 H   0  0  0  0  0  0  0  0  0  0  0  0
    5.8463   -5.1712   13.9345 H   0  0  0  0  0  0  0  0  0  0  0  0
    6.2969   -5.9001   12.4118 H   0  0  0  0  0  0  0  0  0  0  0  0
   -2.4352    2.7304   13.1671 H   0  0  0  0  0  0  0  0  0  0  0  0
   -2.9575    1.5595   11.9657 H   0  0  0  0  0  0  0  0  0  0  0  0
   -4.8487   -0.7555   12.2663 H   0  0  0  0  0  0  0  0  0  0  0  0
   -3.2135   -0.6544   11.6588 H   0  0  0  0  0  0  0  0  0  0  0  0
   -4.1662    0.7979   11.8492 H   0  0  0  0  0  0  0  0  0  0  0  0
   -3.2311   -0.9835   14.0812 H   0  0  0  0  0  0  0  0  0  0  0  0
   -4.1829    0.4846   14.2597 H   0  0  0  0  0  0  0  0  0  0  0  0
    0.3568    3.4019   12.9467 H   0  0  0  0  0  0  0  0  0  0  0  0
   -1.1584    3.9711   12.2692 H   0  0  0  0  0  0  0  0  0  0  0  0
    2.0447    3.3039   11.9975 H   0  0  0  0  0  0  0  0  0  0  0  0
    2.0742    4.7858   11.0534 H   0  0  0  0  0  0  0  0  0  0  0  0
    2.1718    2.0018    9.9366 H   0  0  0  0  0  0  0  0  0  0  0  0
    3.5262    3.0986   10.0612 H   0  0  0  0  0  0  0  0  0  0  0  0
    2.1902    3.4772    9.0007 H   0  0  0  0  0  0  0  0  0  0  0  0
  1 25  1  0
  1  2  1  0
  2  3  1  0
  2 29  1  0
  2 30  1  0
  3  4  1  0
  3 31  1  0
  3 32  1  0
  4  7  1  0
  4  5  1  0
  4 33  1  0
  5  6  1  0
  5 34  1  0
  5 35  1  0
  6  1  1  0
  6 36  1  0
  6 37  1  0
  7  8  2  0
  8  9  1  0
  9 10  1  0
  9 12  1  0
 10 11  2  0
 10 38  1  0
 11 13  1  0
 11  7  1  0
 13 14  1  0
 13 39  1  0
 13 40  1  0
 14 15  1  0
 14 16  1  0
 15 41  1  0
 15 42  1  0
 15 43  1  0
 16 17  1  0
 16 44  1  0
 16 45  1  0
 17 18  1  0
 17 46  1  0
 17 47  1  0
 18 19  1  0
 18 20  1  0
 19 48  1  0
 19 49  1  0
 19 50  1  0
 21  1  1  0
 21 51  1  0
 21 52  1  0
 22 21  1  0
 23 24  1  0
 23 53  1  0
 23 54  1  0
 23 55  1  0
 24 22  1  0
 24 56  1  0
 24 57  1  0
 25 26  1  0
 25 58  1  0
 25 59  1  0
 26 27  1  0
 27 28  1  0
 27 60  1  0
 27 61  1  0
 28 62  1  0
 28 63  1  0
 28 64  1  0
M  END
>  <minimizedAffinity>  (7) 
-5.57684

>  <mol_id>  (7) 
98130

>  <source_index>  (7) 
6

>  <layer>  (7) 
L3

>  <uniprot>  (7) 
Q9NR22

>  <paff>  (7) 
8.7696000000000005

>  <smiles>  (7) 
CCOCC1(COCC)CCC(c2n[nH]cc2CN(C)CCNC)CC1

$$$$
L3:Q9NR22:123696
     RDKit          3D

 43 44  0  0  0  0  0  0  0  0999 V2000
    2.3810    2.8427   11.0366 C   0  0  0  0  0  0  0  0  0  0  0  0
    3.2525    2.7706   12.1055 C   0  0  0  0  0  0  0  0  0  0  0  0
    4.2494    3.6867   11.9079 N   0  0  0  0  0  0  0  0  0  0  0  0
    4.0304    4.3502   10.7313 C   0  0  0  0  0  0  0  0  0  0  0  0
    2.8693    3.8619   10.1544 C   0  0  0  0  0  0  0  0  0  0  0  0
    5.0257    3.8507   12.5357 H   0  0  0  0  0  0  0  0  0  0  0  0
   -1.0864    0.3801   10.7063 C   0  0  0  0  0  0  0  0  0  0  0  0
   -1.2159    1.7588   10.8659 C   0  0  0  0  0  0  0  0  0  0  0  0
   -0.0764    2.5654   10.9783 C   0  0  0  0  0  0  0  0  0  0  0  0
    1.2030    2.0009   10.9342 C   0  0  0  0  0  0  0  0  0  0  0  0
    1.3318    0.6190   10.7826 C   0  0  0  0  0  0  0  0  0  0  0  0
    0.1925   -0.1828   10.6718 C   0  0  0  0  0  0  0  0  0  0  0  0
   -2.1036   -0.5242   10.5897 O   0  0  0  0  0  0  0  0  0  0  0  0
   -4.1591   -0.8153   11.8354 C   0  0  0  0  0  0  0  0  0  0  0  0
   -3.4570   -0.0732   10.7020 C   0  0  0  0  0  0  0  0  0  0  0  0
   -4.1364   -0.3914    9.3715 C   0  0  0  0  0  0  0  0  0  0  0  0
    2.2656    4.3345    8.8680 C   0  0  0  0  0  0  0  0  0  0  0  0
    2.5933    3.4330    7.7617 N   0  0  0  0  0  0  0  0  0  0  0  0
    1.9527    2.6397    7.8113 H   0  0  0  0  0  0  0  0  0  0  0  0
    2.4860    4.0351    6.4274 C   0  0  0  0  0  0  0  0  0  0  0  0
    1.7690    5.3988    6.4041 C   0  0  0  0  0  0  0  0  0  0  0  0
    2.4815    6.3725    5.5720 N   0  0  0  0  0  0  0  0  0  0  0  0
    3.4126    6.5226    5.9595 H   0  0  0  0  0  0  0  0  0  0  0  0
    2.0032    7.2703    5.6343 H   0  0  0  0  0  0  0  0  0  0  0  0
    3.1666    2.1351   12.9141 H   0  0  0  0  0  0  0  0  0  0  0  0
    4.6310    5.0919   10.3385 H   0  0  0  0  0  0  0  0  0  0  0  0
   -2.1544    2.1866   10.9014 H   0  0  0  0  0  0  0  0  0  0  0  0
   -0.1815    3.5854   11.0947 H   0  0  0  0  0  0  0  0  0  0  0  0
    2.2695    0.1891   10.7523 H   0  0  0  0  0  0  0  0  0  0  0  0
    0.2968   -1.2037   10.5631 H   0  0  0  0  0  0  0  0  0  0  0  0
   -5.1699   -0.4732   11.9134 H   0  0  0  0  0  0  0  0  0  0  0  0
   -3.6469   -0.6274   12.7559 H   0  0  0  0  0  0  0  0  0  0  0  0
   -4.1528   -1.8657   11.6317 H   0  0  0  0  0  0  0  0  0  0  0  0
   -3.4994    0.9742   10.9164 H   0  0  0  0  0  0  0  0  0  0  0  0
   -4.0786   -1.4433    9.1841 H   0  0  0  0  0  0  0  0  0  0  0  0
   -3.6436    0.1389    8.5836 H   0  0  0  0  0  0  0  0  0  0  0  0
   -5.1630   -0.0927    9.4148 H   0  0  0  0  0  0  0  0  0  0  0  0
    2.6420    5.3109    8.6447 H   0  0  0  0  0  0  0  0  0  0  0  0
    1.2019    4.3548    8.9824 H   0  0  0  0  0  0  0  0  0  0  0  0
    1.9442    3.3606    5.7978 H   0  0  0  0  0  0  0  0  0  0  0  0
    3.4857    4.2082    6.0875 H   0  0  0  0  0  0  0  0  0  0  0  0
    1.7084    5.7757    7.4037 H   0  0  0  0  0  0  0  0  0  0  0  0
    0.7936    5.2554    5.9881 H   0  0  0  0  0  0  0  0  0  0  0  0
  1  2  2  0
  2  3  1  0
  2 25  1  0
  3  4  1  0
  3  6  1  0
  4  5  2  0
  4 26  1  0
  5 17  1  0
  5  1  1  0
  7  8  2  0
  8  9  1  0
  8 27  1  0
  9 10  2  0
  9 28  1  0
 10  1  1  0
 10 11  1  0
 11 12  2  0
 11 29  1  0
 12  7  1  0
 12 30  1  0
 13  7  1  0
 14 15  1  0
 14 31  1  0
 14 32  1  0
 14 33  1  0
 15 16  1  0
 15 13  1  0
 15 34  1  0
 16 35  1  0
 16 36  1  0
 16 37  1  0
 17 18  1  0
 17 38  1  0
 17 39  1  0
 18 20  1  0
 18 19  1  0
 20 21  1  0
 20 40  1  0
 20 41  1  0
 21 22  1  0
 21 42  1  0
 21 43  1  0
 22 23  1  0
 22 24  1  0
M  END
>  <minimizedAffinity>  (8) 
-7.33450

>  <mol_id>  (8) 
123696

>  <source_index>  (8) 
7

>  <layer>  (8) 
L3

>  <uniprot>  (8) 
Q9NR22

>  <paff>  (8) 
8.3010000000000002

>  <smiles>  (8) 
CC(C)Oc1ccc(-c2c[nH]cc2CNCCN)cc1

$$$$
L3:Q9NR22:131437
     RDKit          3D

 46 47  0  0  0  0  0  0  0  0999 V2000
   -2.3111    0.2960   10.9645 C   0  0  0  0  0  0  0  0  0  0  0  0
   -3.2163   -0.0382    9.9768 C   0  0  0  0  0  0  0  0  0  0  0  0
   -4.2428   -0.7336   10.5567 N   0  0  0  0  0  0  0  0  0  0  0  0
   -4.0124   -0.8489   11.8997 C   0  0  0  0  0  0  0  0  0  0  0  0
   -2.8210   -0.2096   12.2036 C   0  0  0  0  0  0  0  0  0  0  0  0
   -5.0484   -1.1034   10.0691 H   0  0  0  0  0  0  0  0  0  0  0  0
    1.2536    2.4821   10.1402 C   0  0  0  0  0  0  0  0  0  0  0  0
    1.1818    1.1123    9.8708 C   0  0  0  0  0  0  0  0  0  0  0  0
    0.0180    0.3889   10.1446 C   0  0  0  0  0  0  0  0  0  0  0  0
   -1.0948    1.0353   10.6874 C   0  0  0  0  0  0  0  0  0  0  0  0
   -1.0279    2.4061   10.9531 C   0  0  0  0  0  0  0  0  0  0  0  0
    0.1409    3.1272   10.6791 C   0  0  0  0  0  0  0  0  0  0  0  0
    2.4499    3.0578    9.8181 O   0  0  0  0  0  0  0  0  0  0  0  0
    3.5448    5.1207    9.3934 C   0  0  0  0  0  0  0  0  0  0  0  0
    2.4732    4.1523    8.8965 C   0  0  0  0  0  0  0  0  0  0  0  0
    2.8333    3.6485    7.5020 C   0  0  0  0  0  0  0  0  0  0  0  0
   -2.2051   -0.0825   13.5674 C   0  0  0  0  0  0  0  0  0  0  0  0
   -1.6804   -1.3858   14.0239 N   0  0  0  0  0  0  0  0  0  0  0  0
   -1.7109   -1.4678   15.4899 C   0  0  0  0  0  0  0  0  0  0  0  0
   -0.2983   -1.5628   13.5152 C   0  0  0  0  0  0  0  0  0  0  0  0
   -0.1054   -2.8796   12.7285 C   0  0  0  0  0  0  0  0  0  0  0  0
   -1.3918   -3.5276   12.4564 N   0  0  0  0  0  0  0  0  0  0  0  0
   -1.9781   -3.3686   13.2837 H   0  0  0  0  0  0  0  0  0  0  0  0
   -1.2576   -4.5336   12.3895 H   0  0  0  0  0  0  0  0  0  0  0  0
   -3.1333    0.1958    8.9751 H   0  0  0  0  0  0  0  0  0  0  0  0
   -4.6247   -1.3322   12.5754 H   0  0  0  0  0  0  0  0  0  0  0  0
    1.9984    0.6293    9.4647 H   0  0  0  0  0  0  0  0  0  0  0  0
   -0.0193   -0.6231    9.9457 H   0  0  0  0  0  0  0  0  0  0  0  0
   -1.8461    2.8904   11.3543 H   0  0  0  0  0  0  0  0  0  0  0  0
    0.1789    4.1394   10.8767 H   0  0  0  0  0  0  0  0  0  0  0  0
    3.6003    5.9607    8.7330 H   0  0  0  0  0  0  0  0  0  0  0  0
    4.4917    4.6230    9.4177 H   0  0  0  0  0  0  0  0  0  0  0  0
    3.2931    5.4568   10.3776 H   0  0  0  0  0  0  0  0  0  0  0  0
    1.5177    4.6304    8.8390 H   0  0  0  0  0  0  0  0  0  0  0  0
    3.7873    3.1650    7.5328 H   0  0  0  0  0  0  0  0  0  0  0  0
    2.8740    4.4750    6.8237 H   0  0  0  0  0  0  0  0  0  0  0  0
    2.0911    2.9522    7.1716 H   0  0  0  0  0  0  0  0  0  0  0  0
   -2.9474    0.2593   14.2581 H   0  0  0  0  0  0  0  0  0  0  0  0
   -1.3967    0.6167   13.5173 H   0  0  0  0  0  0  0  0  0  0  0  0
   -2.7158   -1.3376   15.8336 H   0  0  0  0  0  0  0  0  0  0  0  0
   -1.0904   -0.7003   15.9030 H   0  0  0  0  0  0  0  0  0  0  0  0
   -1.3488   -2.4253   15.8012 H   0  0  0  0  0  0  0  0  0  0  0  0
    0.3737   -1.5620   14.3479 H   0  0  0  0  0  0  0  0  0  0  0  0
   -0.1011   -0.7562   12.8403 H   0  0  0  0  0  0  0  0  0  0  0  0
    0.5052   -3.5437   13.3039 H   0  0  0  0  0  0  0  0  0  0  0  0
    0.3631   -2.6507   11.7942 H   0  0  0  0  0  0  0  0  0  0  0  0
  1  2  2  0
  2  3  1  0
  2 25  1  0
  3  4  1  0
  3  6  1  0
  4  5  2  0
  4 26  1  0
  5 17  1  0
  5  1  1  0
  7  8  2  0
  8  9  1  0
  8 27  1  0
  9 10  2  0
  9 28  1  0
 10  1  1  0
 10 11  1  0
 11 12  2  0
 11 29  1  0
 12  7  1  0
 12 30  1  0
 13  7  1  0
 14 15  1  0
 14 31  1  0
 14 32  1  0
 14 33  1  0
 15 16  1  0
 15 13  1  0
 15 34  1  0
 16 35  1  0
 16 36  1  0
 16 37  1  0
 17 18  1  0
 17 38  1  0
 17 39  1  0
 18 19  1  0
 18 20  1  0
 19 40  1  0
 19 41  1  0
 19 42  1  0
 20 21  1  0
 20 43  1  0
 20 44  1  0
 21 22  1  0
 21 45  1  0
 21 46  1  0
 22 23  1  0
 22 24  1  0
M  END
>  <minimizedAffinity>  (9) 
-7.08986

>  <mol_id>  (9) 
131437

>  <source_index>  (9) 
8

>  <layer>  (9) 
L3

>  <uniprot>  (9) 
Q9NR22

>  <paff>  (9) 
8.3010000000000002

>  <smiles>  (9) 
CC(C)Oc1ccc(-c2c[nH]cc2CN(C)CCN)cc1

$$$$
L3:Q9NR22:144261
     RDKit          3D

 62 63  0  0  0  0  0  0  0  0999 V2000
    2.5088    4.5450    9.9829 C   0  0  0  0  0  0  0  0  0  0  0  0
    3.8298    4.8292   10.3888 C   0  0  0  0  0  0  0  0  0  0  0  0
    4.3840    4.2430   11.5286 C   0  0  0  0  0  0  0  0  0  0  0  0
    3.6325    3.3474   12.2798 C   0  0  0  0  0  0  0  0  0  0  0  0
    2.3276    3.0495   11.8926 C   0  0  0  0  0  0  0  0  0  0  0  0
    1.7572    3.6589   10.7674 C   0  0  0  0  0  0  0  0  0  0  0  0
    1.9954    5.1773    8.7032 C   0  0  0  0  0  0  0  0  0  0  0  0
    2.6704    4.7153    7.4781 N   0  0  0  0  0  0  0  0  0  0  0  0
    2.7001    3.2713    7.2996 C   0  0  0  0  0  0  0  0  0  0  0  0
    2.2214    5.4438    6.2756 C   0  0  0  0  0  0  0  0  0  0  0  0
    1.0054    6.4029    6.3684 C   0  0  0  0  0  0  0  0  0  0  0  0
   -1.1960    6.8662    5.5053 C   0  0  0  0  0  0  0  0  0  0  0  0
   -0.2475    5.8221    5.8749 N   0  0  0  0  0  0  0  0  0  0  0  0
   -0.0417    5.2614    5.0505 H   0  0  0  0  0  0  0  0  0  0  0  0
    0.4939    3.2320   10.4593 O   0  0  0  0  0  0  0  0  0  0  0  0
    0.0581    2.0316   11.1199 C   0  0  0  0  0  0  0  0  0  0  0  0
   -1.3159    2.3612   11.7190 C   0  0  0  0  0  0  0  0  0  0  0  0
   -1.9365    1.1626   12.4311 C   0  0  0  0  0  0  0  0  0  0  0  0
   -2.0558   -0.0886   11.5273 C   0  0  0  0  0  0  0  0  0  0  0  0
   -0.6745   -0.3938   10.8958 C   0  0  0  0  0  0  0  0  0  0  0  0
   -0.0417    0.8104   10.1948 C   0  0  0  0  0  0  0  0  0  0  0  0
   -2.5000   -1.2805   12.4129 C   0  0  0  0  0  0  0  0  0  0  0  0
   -1.5662   -2.3591   12.3031 O   0  0  0  0  0  0  0  0  0  0  0  0
   -1.0703   -2.7523   13.5763 C   0  0  0  0  0  0  0  0  0  0  0  0
   -3.1066    0.1176   10.4051 C   0  0  0  0  0  0  0  0  0  0  0  0
   -3.8525   -1.0852   10.1898 O   0  0  0  0  0  0  0  0  0  0  0  0
   -5.2525   -0.8289   10.1736 C   0  0  0  0  0  0  0  0  0  0  0  0
    4.3991    5.4848    9.8310 H   0  0  0  0  0  0  0  0  0  0  0  0
    5.3489    4.4742   11.8123 H   0  0  0  0  0  0  0  0  0  0  0  0
    4.0385    2.9056   13.1194 H   0  0  0  0  0  0  0  0  0  0  0  0
    1.7749    2.3721   12.4410 H   0  0  0  0  0  0  0  0  0  0  0  0
    0.9529    4.9530    8.6149 H   0  0  0  0  0  0  0  0  0  0  0  0
    2.1935    6.2258    8.7820 H   0  0  0  0  0  0  0  0  0  0  0  0
    3.2078    3.0350    6.3879 H   0  0  0  0  0  0  0  0  0  0  0  0
    1.6988    2.8964    7.2577 H   0  0  0  0  0  0  0  0  0  0  0  0
    3.2155    2.8208    8.1220 H   0  0  0  0  0  0  0  0  0  0  0  0
    3.0522    6.0275    5.9380 H   0  0  0  0  0  0  0  0  0  0  0  0
    1.8768    4.6659    5.6267 H   0  0  0  0  0  0  0  0  0  0  0  0
    0.8693    6.6763    7.3939 H   0  0  0  0  0  0  0  0  0  0  0  0
    1.2248    7.2444    5.7450 H   0  0  0  0  0  0  0  0  0  0  0  0
   -1.4212    7.4637    6.3639 H   0  0  0  0  0  0  0  0  0  0  0  0
   -2.0949    6.4174    5.1373 H   0  0  0  0  0  0  0  0  0  0  0  0
   -0.7678    7.4836    4.7435 H   0  0  0  0  0  0  0  0  0  0  0  0
    0.7804    1.7522   11.8582 H   0  0  0  0  0  0  0  0  0  0  0  0
   -1.9702    2.6706   10.9310 H   0  0  0  0  0  0  0  0  0  0  0  0
   -1.1814    3.1391   12.4413 H   0  0  0  0  0  0  0  0  0  0  0  0
   -2.9156    1.4352   12.7656 H   0  0  0  0  0  0  0  0  0  0  0  0
   -1.2907    0.9067   13.2450 H   0  0  0  0  0  0  0  0  0  0  0  0
   -0.7966   -1.1775   10.1777 H   0  0  0  0  0  0  0  0  0  0  0  0
   -0.0190   -0.6721   11.6944 H   0  0  0  0  0  0  0  0  0  0  0  0
   -0.6397    1.0688    9.3460 H   0  0  0  0  0  0  0  0  0  0  0  0
    0.9506    0.5370    9.9025 H   0  0  0  0  0  0  0  0  0  0  0  0
   -3.4649   -1.6158   12.0945 H   0  0  0  0  0  0  0  0  0  0  0  0
   -2.5403   -0.9590   13.4326 H   0  0  0  0  0  0  0  0  0  0  0  0
   -0.3770   -3.5584   13.4556 H   0  0  0  0  0  0  0  0  0  0  0  0
   -1.8843   -3.0713   14.1931 H   0  0  0  0  0  0  0  0  0  0  0  0
   -0.5763   -1.9232   14.0383 H   0  0  0  0  0  0  0  0  0  0  0  0
   -2.6058    0.3883    9.4991 H   0  0  0  0  0  0  0  0  0  0  0  0
   -3.7804    0.8946   10.7003 H   0  0  0  0  0  0  0  0  0  0  0  0
   -5.7809   -1.7450   10.0112 H   0  0  0  0  0  0  0  0  0  0  0  0
   -5.4801   -0.1414    9.3859 H   0  0  0  0  0  0  0  0  0  0  0  0
   -5.5489   -0.4076   11.1115 H   0  0  0  0  0  0  0  0  0  0  0  0
  1  2  2  0
  2  3  1  0
  2 28  1  0
  3  4  2  0
  3 29  1  0
  4  5  1  0
  4 30  1  0
  5  6  2  0
  5 31  1  0
  6 15  1  0
  6  1  1  0
  7  1  1  0
  7 32  1  0
  7 33  1  0
  8  9  1  0
  8  7  1  0
  9 34  1  0
  9 35  1  0
  9 36  1  0
 10  8  1  0
 10 37  1  0
 10 38  1  0
 11 10  1  0
 11 39  1  0
 11 40  1  0
 12 13  1  0
 12 41  1  0
 12 42  1  0
 12 43  1  0
 13 11  1  0
 13 14  1  0
 15 16  1  0
 16 17  1  0
 16 44  1  0
 17 18  1  0
 17 45  1  0
 17 46  1  0
 18 19  1  0
 18 47  1  0
 18 48  1  0
 19 22  1  0
 19 25  1  0
 19 20  1  0
 20 21  1  0
 20 49  1  0
 20 50  1  0
 21 16  1  0
 21 51  1  0
 21 52  1  0
 22 23  1  0
 22 53  1  0
 22 54  1  0
 23 24  1  0
 24 55  1  0
 24 56  1  0
 24 57  1  0
 25 26  1  0
 25 58  1  0
 25 59  1  0
 26 27  1  0
 27 60  1  0
 27 61  1  0
 27 62  1  0
M  END
>  <minimizedAffinity>  (10) 
-6.78248

>  <mol_id>  (10) 
144261

>  <source_index>  (10) 
9

>  <layer>  (10) 
L3

>  <uniprot>  (10) 
Q9NR22

>  <paff>  (10) 
7.6197999999999997

>  <smiles>  (10) 
CNCCN(C)Cc1ccccc1OC1CCC(COC)(COC)CC1

$$$$
