L1:Q86WV6:101630
     RDKit          3D

 35 37  0  0  0  0  0  0  0  0999 V2000
   -0.1582   -0.4043    1.9366 O   0  0  0  0  0  0  0  0  0  0  0  0
   -0.1494   -0.1538    0.7379 C   0  0  0  0  0  0  0  0  0  0  0  0
   -1.2825    0.0750   -0.0348 N   0  0  0  0  0  0  0  0  0  0  0  0
   -2.6305    0.0650    0.3823 C   0  0  0  0  0  0  0  0  0  0  0  0
   -3.0464   -0.1888    1.6895 C   0  0  0  0  0  0  0  0  0  0  0  0
   -4.4050   -0.1766    2.0193 C   0  0  0  0  0  0  0  0  0  0  0  0
   -5.3637    0.0875    1.0437 C   0  0  0  0  0  0  0  0  0  0  0  0
   -4.9724    0.3363   -0.2774 C   0  0  0  0  0  0  0  0  0  0  0  0
   -5.9982    0.6456   -1.3381 C   0  0  0  0  0  0  0  0  0  0  0  0
   -6.2355    1.9810   -1.4542 F   0  0  0  0  0  0  0  0  0  0  0  0
   -5.6209    0.2256   -2.5787 F   0  0  0  0  0  0  0  0  0  0  0  0
   -7.2086    0.0674   -1.1031 F   0  0  0  0  0  0  0  0  0  0  0  0
   -3.6016    0.3300   -0.5937 C   0  0  0  0  0  0  0  0  0  0  0  0
    0.9951   -0.0574   -0.0438 N   0  0  0  0  0  0  0  0  0  0  0  0
    2.2988   -0.2257    0.3984 C   0  0  0  0  0  0  0  0  0  0  0  0
    2.7237   -0.5155    1.6734 C   0  0  0  0  0  0  0  0  0  0  0  0
    4.0900   -0.5942    1.6674 N   0  0  0  0  0  0  0  0  0  0  0  0
    4.5737   -0.3592    0.4010 C   0  0  0  0  0  0  0  0  0  0  0  0
    5.8926   -0.3387   -0.0687 C   0  0  0  0  0  0  0  0  0  0  0  0
    6.0914   -0.0684   -1.4256 C   0  0  0  0  0  0  0  0  0  0  0  0
    5.0093    0.1700   -2.2681 C   0  0  0  0  0  0  0  0  0  0  0  0
    5.2889    0.5003   -3.9360 Cl  0  0  0  0  0  0  0  0  0  0  0  0
    3.6960    0.1469   -1.7876 C   0  0  0  0  0  0  0  0  0  0  0  0
    3.4690   -0.1238   -0.4211 C   0  0  0  0  0  0  0  0  0  0  0  0
   -1.1253    0.2721   -1.0099 H   0  0  0  0  0  0  0  0  0  0  0  0
   -2.3379   -0.3998    2.4847 H   0  0  0  0  0  0  0  0  0  0  0  0
   -4.7097   -0.3735    3.0448 H   0  0  0  0  0  0  0  0  0  0  0  0
   -6.4175    0.0963    1.3186 H   0  0  0  0  0  0  0  0  0  0  0  0
   -3.3026    0.5348   -1.6206 H   0  0  0  0  0  0  0  0  0  0  0  0
    0.8947    0.1517   -1.0228 H   0  0  0  0  0  0  0  0  0  0  0  0
    2.1762   -0.6746    2.5932 H   0  0  0  0  0  0  0  0  0  0  0  0
    4.6616   -0.7957    2.4763 H   0  0  0  0  0  0  0  0  0  0  0  0
    6.7345   -0.5250    0.5908 H   0  0  0  0  0  0  0  0  0  0  0  0
    7.1048   -0.0458   -1.8194 H   0  0  0  0  0  0  0  0  0  0  0  0
    2.8659    0.3351   -2.4596 H   0  0  0  0  0  0  0  0  0  0  0  0
  1  2  2  0
  2  3  1  0
  3  4  1  0
  4  5  2  0
  5  6  1  0
  6  7  2  0
  7  8  1  0
  8  9  1  0
  9 10  1  0
  9 11  1  0
  9 12  1  0
  8 13  2  0
  2 14  1  0
 14 15  1  0
 15 16  2  0
 16 17  1  0
 17 18  1  0
 18 19  2  0
 19 20  1  0
 20 21  2  0
 21 22  1  0
 21 23  1  0
 23 24  2  0
 13  4  1  0
 24 15  1  0
 24 18  1  0
  3 25  1  0
  5 26  1  0
  6 27  1  0
  7 28  1  0
 13 29  1  0
 14 30  1  0
 16 31  1  0
 17 32  1  0
 19 33  1  0
 20 34  1  0
 23 35  1  0
M  END
>  <mol_id>  (1) 
101630

>  <source_index>  (1) 
7

>  <layer>  (1) 
L1

>  <uniprot>  (1) 
Q86WV6

>  <paff>  (1) 
7.0269000000000004

>  <smiles>  (1) 
O=C(Nc1cccc(C(F)(F)F)c1)Nc1c[nH]c2ccc(Cl)cc12

$$$$
