L1:Q86WV6:101630
 OpenBabel09212617433D

 35 37  0  0  0  0  0  0  0  0999 V2000
   10.3189    8.9816   36.3213 O   0  0  0  0  0  0  0  0  0  0  0  0
   11.5081    8.9061   36.6037 C   0  0  0  0  0  0  0  0  0  0  0  0
   12.2649    7.7408   36.5524 N   0  0  0  0  0  0  0  0  0  0  0  0
   12.2936    9.9734   37.0209 N   0  0  0  0  0  0  0  0  0  0  0  0
   13.2346    7.8267   36.8109 H   0  0  0  0  0  0  0  0  0  0  0  0
   13.2631    9.8060   37.2312 H   0  0  0  0  0  0  0  0  0  0  0  0
   11.8667   11.2829   37.1834 C   0  0  0  0  0  0  0  0  0  0  0  0
   11.5587   11.9276   38.3580 C   0  0  0  0  0  0  0  0  0  0  0  0
   11.1813   13.2095   38.0626 N   0  0  0  0  0  0  0  0  0  0  0  0
   11.2363   13.4197   36.7040 C   0  0  0  0  0  0  0  0  0  0  0  0
   10.9411   14.5677   35.9587 C   0  0  0  0  0  0  0  0  0  0  0  0
   11.0887   14.4930   34.5707 C   0  0  0  0  0  0  0  0  0  0  0  0
   11.5141   13.3144   33.9643 C   0  0  0  0  0  0  0  0  0  0  0  0
   11.6856   13.2556   32.2508 Cl  0  0  0  0  0  0  0  0  0  0  0  0
   11.8061   12.1738   34.7192 C   0  0  0  0  0  0  0  0  0  0  0  0
   11.6649   12.2239   36.1226 C   0  0  0  0  0  0  0  0  0  0  0  0
   10.9022   13.9022   38.7438 H   0  0  0  0  0  0  0  0  0  0  0  0
   11.8386    6.4480   36.1806 C   0  0  0  0  0  0  0  0  0  0  0  0
   11.5258    6.0693   34.8748 C   0  0  0  0  0  0  0  0  0  0  0  0
   11.1128    4.7639   34.5918 C   0  0  0  0  0  0  0  0  0  0  0  0
   11.0058    3.8226   35.6132 C   0  0  0  0  0  0  0  0  0  0  0  0
   11.3053    4.1804   36.9333 C   0  0  0  0  0  0  0  0  0  0  0  0
   11.7284    5.4947   37.2028 C   0  0  0  0  0  0  0  0  0  0  0  0
   11.2152    3.1654   38.0445 C   0  0  0  0  0  0  0  0  0  0  0  0
    9.9679    2.6321   38.1579 F   0  0  0  0  0  0  0  0  0  0  0  0
   12.0570    2.1083   37.8662 F   0  0  0  0  0  0  0  0  0  0  0  0
   11.5181    3.6780   39.2693 F   0  0  0  0  0  0  0  0  0  0  0  0
   11.6044   11.5147   39.3027 H   0  0  0  0  0  0  0  0  0  0  0  0
   10.6262   15.4369   36.4172 H   0  0  0  0  0  0  0  0  0  0  0  0
   10.8802   15.3200   33.9896 H   0  0  0  0  0  0  0  0  0  0  0  0
   12.1207   11.3069   34.2561 H   0  0  0  0  0  0  0  0  0  0  0  0
   11.5999    6.7591   34.1108 H   0  0  0  0  0  0  0  0  0  0  0  0
   10.8860    4.4963   33.6212 H   0  0  0  0  0  0  0  0  0  0  0  0
   10.7051    2.8595   35.3964 H   0  0  0  0  0  0  0  0  0  0  0  0
   11.9622    5.7624   38.1717 H   0  0  0  0  0  0  0  0  0  0  0  0
  1  2  2  0  0  0  0
  2  3  1  0  0  0  0
  2  4  1  0  0  0  0
  3 18  1  0  0  0  0
  3  5  1  0  0  0  0
  4  7  1  0  0  0  0
  4  6  1  0  0  0  0
  7  8  2  0  0  0  0
  8  9  1  0  0  0  0
  8 28  1  0  0  0  0
  9 10  1  0  0  0  0
  9 17  1  0  0  0  0
 10 11  2  0  0  0  0
 11 12  1  0  0  0  0
 11 29  1  0  0  0  0
 12 13  2  0  0  0  0
 12 30  1  0  0  0  0
 13 14  1  0  0  0  0
 13 15  1  0  0  0  0
 15 16  2  0  0  0  0
 15 31  1  0  0  0  0
 16  7  1  0  0  0  0
 16 10  1  0  0  0  0
 18 19  2  0  0  0  0
 19 20  1  0  0  0  0
 19 32  1  0  0  0  0
 20 21  2  0  0  0  0
 20 33  1  0  0  0  0
 21 22  1  0  0  0  0
 21 34  1  0  0  0  0
 22 24  1  0  0  0  0
 22 23  2  0  0  0  0
 23 18  1  0  0  0  0
 23 35  1  0  0  0  0
 24 25  1  0  0  0  0
 24 26  1  0  0  0  0
 24 27  1  0  0  0  0
M  END
>  <minimizedAffinity>
-9.44528

$$$$
