L1:Q86WV6:110106
     RDKit          3D

 70 76  0  0  0  0  0  0  0  0999 V2000
    5.8435   -3.8599   -1.1707 C   0  0  0  0  0  0  0  0  0  0  0  0
    5.3066   -2.8421   -0.2948 N   0  0  0  0  0  0  0  0  0  0  0  0
    5.1184   -1.5459   -0.7569 C   0  0  0  0  0  0  0  0  0  0  0  0
    4.6420   -0.5503   -0.0703 N   0  0  0  0  0  0  0  0  0  0  0  0
    4.3084   -0.8890    1.1964 C   0  0  0  0  0  0  0  0  0  0  0  0
    4.4463   -2.1270    1.7878 C   0  0  0  0  0  0  0  0  0  0  0  0
    3.9849   -2.0056    3.1005 C   0  0  0  0  0  0  0  0  0  0  0  0
    3.9512   -2.9723    4.0216 F   0  0  0  0  0  0  0  0  0  0  0  0
    3.5615   -0.7152    3.2998 C   0  0  0  0  0  0  0  0  0  0  0  0
    3.7386   -0.0332    2.1123 N   0  0  0  0  0  0  0  0  0  0  0  0
    3.3661    1.3559    1.8400 C   0  0  2  0  0  0  0  0  0  0  0  0
    2.8733    1.9615    3.0795 O   0  0  0  0  0  0  0  0  0  0  0  0
    1.5884    2.5734    2.7985 C   0  0  2  0  0  0  0  0  0  0  0  0
    0.4684    1.6494    3.3104 C   0  0  0  0  0  0  0  0  0  0  0  0
   -0.7010    1.7741    2.5138 O   0  0  0  0  0  0  0  0  0  0  0  0
   -1.9262    0.7982    2.8602 P   0  0  2  0  0  5  0  0  0  0  0  0
   -2.2798    0.7222    4.3055 O   0  0  0  0  0  0  0  0  0  0  0  0
   -1.4383   -0.6199    2.3026 O   0  0  0  0  0  0  0  0  0  0  0  0
   -3.1126    1.2102    1.8773 O   0  0  0  0  0  0  0  0  0  0  0  0
   -3.1206    0.9206    0.4884 C   0  0  1  0  0  0  0  0  0  0  0  0
   -4.4129    1.4563   -0.1026 C   0  0  1  0  0  0  0  0  0  0  0  0
   -4.6372    2.7141    0.4022 F   0  0  0  0  0  0  0  0  0  0  0  0
   -4.0923    1.6185   -1.5745 C   0  0  2  0  0  0  0  0  0  0  0  0
   -4.2913    0.4981   -2.4679 N   0  0  0  0  0  0  0  0  0  0  0  0
   -4.1071    0.5718   -3.8291 C   0  0  0  0  0  0  0  0  0  0  0  0
   -4.3864   -0.5640   -4.4304 N   0  0  0  0  0  0  0  0  0  0  0  0
   -4.7512   -1.4187   -3.4128 C   0  0  0  0  0  0  0  0  0  0  0  0
   -5.1511   -2.7659   -3.4091 C   0  0  0  0  0  0  0  0  0  0  0  0
   -5.2492   -3.5234   -4.5528 N   0  0  0  0  0  0  0  0  0  0  0  0
   -5.4547   -3.3450   -2.2258 N   0  0  0  0  0  0  0  0  0  0  0  0
   -5.3568   -2.6019   -1.1051 C   0  0  0  0  0  0  0  0  0  0  0  0
   -4.9811   -1.3105   -0.9845 N   0  0  0  0  0  0  0  0  0  0  0  0
   -4.6957   -0.7769   -2.1839 C   0  0  0  0  0  0  0  0  0  0  0  0
   -2.6951    1.9725   -1.6332 O   0  0  0  0  0  0  0  0  0  0  0  0
   -2.0679    1.6287   -0.3705 C   0  0  2  0  0  0  0  0  0  0  0  0
   -0.8643    0.7382   -0.7050 C   0  0  0  0  0  0  0  0  0  0  0  0
    0.1568    1.5251   -1.3117 O   0  0  0  0  0  0  0  0  0  0  0  0
    1.5819    0.8257   -1.5673 P   0  0  1  0  0  5  0  0  0  0  0  0
    1.5888   -0.6664   -1.5522 O   0  0  0  0  0  0  0  0  0  0  0  0
    2.0506    1.4521   -2.9616 O   0  0  0  0  0  0  0  0  0  0  0  0
    2.5732    1.5421   -0.5306 O   0  0  0  0  0  0  0  0  0  0  0  0
    2.2180    1.4769    0.8345 C   0  0  2  0  0  0  0  0  0  0  0  0
    1.5753    2.7748    1.2901 C   0  0  2  0  0  0  0  0  0  0  0  0
    2.4097    3.8871    0.9360 O   0  0  0  0  0  0  0  0  0  0  0  0
    4.9876   -3.2154    1.0166 C   0  0  0  0  0  0  0  0  0  0  0  0
    5.1471   -4.3464    1.4651 O   0  0  0  0  0  0  0  0  0  0  0  0
    6.7691   -4.2509   -0.7363 H   0  0  0  0  0  0  0  0  0  0  0  0
    6.0483   -3.4641   -2.1689 H   0  0  0  0  0  0  0  0  0  0  0  0
    5.1246   -4.6820   -1.2446 H   0  0  0  0  0  0  0  0  0  0  0  0
    5.4162   -1.3894   -1.8059 H   0  0  0  0  0  0  0  0  0  0  0  0
    3.1556   -0.2340    4.1788 H   0  0  0  0  0  0  0  0  0  0  0  0
    4.2767    1.8816    1.5313 H   0  0  0  0  0  0  0  0  0  0  0  0
    1.5523    3.5322    3.3266 H   0  0  0  0  0  0  0  0  0  0  0  0
    0.7902    0.6026    3.3125 H   0  0  0  0  0  0  0  0  0  0  0  0
    0.2319    1.9101    4.3480 H   0  0  0  0  0  0  0  0  0  0  0  0
   -1.6991   -1.3292    2.9238 H   0  0  0  0  0  0  0  0  0  0  0  0
   -3.0656   -0.1636    0.3507 H   0  0  0  0  0  0  0  0  0  0  0  0
   -5.3016    0.8719    0.1400 H   0  0  0  0  0  0  0  0  0  0  0  0
   -4.6631    2.4544   -1.9957 H   0  0  0  0  0  0  0  0  0  0  0  0
   -3.7660    1.4770   -4.3181 H   0  0  0  0  0  0  0  0  0  0  0  0
   -5.0194   -3.1032   -5.4421 H   0  0  0  0  0  0  0  0  0  0  0  0
   -5.5386   -4.4843   -4.4695 H   0  0  0  0  0  0  0  0  0  0  0  0
   -5.6141   -3.1116   -0.1805 H   0  0  0  0  0  0  0  0  0  0  0  0
   -1.7364    2.5667    0.0877 H   0  0  0  0  0  0  0  0  0  0  0  0
   -0.4631    0.2706    0.1931 H   0  0  0  0  0  0  0  0  0  0  0  0
   -1.1519   -0.0455   -1.4146 H   0  0  0  0  0  0  0  0  0  0  0  0
    2.8819    1.0447   -3.2594 H   0  0  0  0  0  0  0  0  0  0  0  0
    1.5305    0.6380    0.9912 H   0  0  0  0  0  0  0  0  0  0  0  0
    0.5948    2.9609    0.8498 H   0  0  0  0  0  0  0  0  0  0  0  0
    1.9333    4.7040    1.1662 H   0  0  0  0  0  0  0  0  0  0  0  0
  1  2  1  0
  2  3  1  0
  3  4  2  0
  4  5  1  0
  5  6  2  0
  6  7  1  0
  7  8  1  0
  7  9  2  0
  9 10  1  0
 10 11  1  0
 11 12  1  0
 12 13  1  0
 13 14  1  0
 14 15  1  0
 15 16  1  0
 16 17  2  0
 16 18  1  6
 16 19  1  0
 19 20  1  0
 20 21  1  0
 21 22  1  0
 21 23  1  0
 23 24  1  0
 24 25  1  0
 25 26  2  0
 26 27  1  0
 27 28  2  0
 28 29  1  0
 28 30  1  0
 30 31  2  0
 31 32  1  0
 32 33  2  0
 23 34  1  0
 34 35  1  0
 35 36  1  0
 36 37  1  0
 37 38  1  0
 38 39  2  0
 38 40  1  6
 38 41  1  0
 41 42  1  0
 42 43  1  0
 43 44  1  0
  6 45  1  0
 45 46  2  0
 45  2  1  0
 10  5  1  0
 42 11  1  0
 43 13  1  0
 35 20  1  0
 33 24  1  0
 33 27  1  0
  1 47  1  0
  1 48  1  0
  1 49  1  0
  3 50  1  0
  9 51  1  0
 11 52  1  6
 13 53  1  1
 14 54  1  0
 14 55  1  0
 18 56  1  0
 20 57  1  1
 21 58  1  6
 23 59  1  6
 25 60  1  0
 29 61  1  0
 29 62  1  0
 31 63  1  0
 35 64  1  1
 36 65  1  0
 36 66  1  0
 40 67  1  0
 42 68  1  6
 43 69  1  6
 44 70  1  0
M  END
>  <mol_id>  (1) 
110106

>  <source_index>  (1) 
8

>  <layer>  (1) 
L1

>  <uniprot>  (1) 
Q86WV6

>  <paff>  (1) 
7.0808999999999997

>  <smiles>  (1) 
Cn1cnc2n(cc(F)c2c1=O)[C@@H]1O[C@@H]2COP(O)(=O)O[C@@H]3[C@@H](COP(O)(=O)O[C@@H]1[C@@H]2O)O[C@H]([C@@H]3F)n1cnc2c(N)ncnc12 |r|

$$$$
