L1:Q86WV6:110106


 51 57  0  0  0  0  0  0  0  0999 V2000
   -2.9559    3.6064   37.6043 C   0  0  0  0  0  0  0  0  0  0  0  0
   -3.4501    2.2274   37.5961 O   0  0  0  0  0  0  0  0  0  0  0  0
   -3.4202    1.7495   36.2268 C   0  0  0  0  0  0  0  0  0  0  0  0
   -2.1836    0.8529   36.0338 C   0  0  0  0  0  0  0  0  0  0  0  0
   -1.6991    0.9306   34.7008 O   0  0  0  0  0  0  0  0  0  0  0  0
   -0.3503    0.1285   34.3677 P   0  0  0  0  0  0  0  0  0  0  0  0
   -0.3183   -1.2780   34.8581 O   0  0  0  0  0  0  0  0  0  0  0  0
    0.7874    1.0149   35.0604 O   0  0  0  0  0  0  0  0  0  0  0  0
   -0.0925    0.3240   32.8061 O   0  0  0  0  0  0  0  0  0  0  0  0
    0.3490    1.5419   32.2276 C   0  0  0  0  0  0  0  0  0  0  0  0
    0.4902    1.3343   30.7298 C   0  0  0  0  0  0  0  0  0  0  0  0
   -0.6083    0.6445   30.2776 F   0  0  0  0  0  0  0  0  0  0  0  0
    0.3982    2.7371   30.1646 C   0  0  0  0  0  0  0  0  0  0  0  0
   -0.5022    3.4512   31.0364 O   0  0  0  0  0  0  0  0  0  0  0  0
   -0.6209    2.7264   32.2881 C   0  0  0  0  0  0  0  0  0  0  0  0
   -0.2875    3.7221   33.4065 C   0  0  0  0  0  0  0  0  0  0  0  0
   -1.3471    4.6658   33.5360 O   0  0  0  0  0  0  0  0  0  0  0  0
   -1.2889    5.6837   34.7794 P   0  0  0  0  0  0  0  0  0  0  0  0
    0.0450    5.8459   35.4283 O   0  0  0  0  0  0  0  0  0  0  0  0
   -1.8700    7.0413   34.1666 O   0  0  0  0  0  0  0  0  0  0  0  0
   -2.4836    5.2140   35.7399 O   0  0  0  0  0  0  0  0  0  0  0  0
   -2.4503    3.8740   36.1843 C   0  0  0  0  0  0  0  0  0  0  0  0
   -3.4017    3.0107   35.3752 C   0  0  0  0  0  0  0  0  0  0  0  0
   -4.7068    3.6066   35.3519 O   0  0  0  0  0  0  0  0  0  0  0  0
    1.4543    0.4333   35.4776 H   0  0  0  0  0  0  0  0  0  0  0  0
   -1.8174    7.7622   34.8171 H   0  0  0  0  0  0  0  0  0  0  0  0
   -5.2680    3.0753   34.7602 H   0  0  0  0  0  0  0  0  0  0  0  0
   -2.0805    5.5839   43.7468 C   0  0  0  0  0  0  0  0  0  0  0  0
   -2.0358    5.0704   42.3956 N   0  0  0  0  0  0  0  0  0  0  0  0
   -3.1994    4.9686   41.6441 C   0  0  0  0  0  0  0  0  0  0  0  0
   -3.2864    4.5292   40.4239 N   0  0  0  0  0  0  0  0  0  0  0  0
   -2.0910    4.1711   39.9010 C   0  0  0  0  0  0  0  0  0  0  0  0
   -0.8646    4.2120   40.5301 C   0  0  0  0  0  0  0  0  0  0  0  0
    0.0792    3.7406   39.6147 C   0  0  0  0  0  0  0  0  0  0  0  0
    1.3916    3.6097   39.8256 F   0  0  0  0  0  0  0  0  0  0  0  0
   -0.5632    3.4293   38.4423 C   0  0  0  0  0  0  0  0  0  0  0  0
   -1.9019    3.7211   38.6135 N   0  0  0  0  0  0  0  0  0  0  0  0
   -0.7884    4.6895   41.8860 C   0  0  0  0  0  0  0  0  0  0  0  0
    0.2601    4.7556   42.5202 O   0  0  0  0  0  0  0  0  0  0  0  0
    1.6022    3.5302   30.0447 N   0  0  0  0  0  0  0  0  0  0  0  0
    2.2487    4.0943   31.1200 C   0  0  0  0  0  0  0  0  0  0  0  0
    3.2965    4.8003   30.7551 N   0  0  0  0  0  0  0  0  0  0  0  0
    3.3432    4.6748   29.3835 C   0  0  0  0  0  0  0  0  0  0  0  0
    4.2272    5.1863   28.4182 C   0  0  0  0  0  0  0  0  0  0  0  0
    5.3050    5.9806   28.7326 N   0  0  0  0  0  0  0  0  0  0  0  0
    4.0077    4.8844   27.1188 N   0  0  0  0  0  0  0  0  0  0  0  0
    2.9517    4.1045   26.8118 C   0  0  0  0  0  0  0  0  0  0  0  0
    2.0440    3.5542   27.6465 N   0  0  0  0  0  0  0  0  0  0  0  0
    2.2988    3.8860   28.9231 C   0  0  0  0  0  0  0  0  0  0  0  0
    5.4824    6.2082   29.7006 H   0  0  0  0  0  0  0  0  0  0  0  0
    5.8966    6.3058   27.9854 H   0  0  0  0  0  0  0  0  0  0  0  0
 28 29  1  0  0  0
 29 30  1  0  0  0
 30 31  2  0  0  0
 31 32  1  0  0  0
 32 33  2  0  0  0
 33 34  1  0  0  0
 34 35  1  0  0  0
 34 36  2  0  0  0
 36 37  1  0  0  0
 37  1  1  0  0  0
  1  2  1  0  0  0
  2  3  1  0  0  0
  3  4  1  0  0  0
  4  5  1  0  0  0
  5  6  1  0  0  0
  6  7  2  0  0  0
  6  8  1  0  0  0
  6  9  1  0  0  0
  9 10  1  0  0  0
 10 11  1  0  0  0
 11 12  1  0  0  0
 11 13  1  0  0  0
 13 40  1  0  0  0
 40 41  1  0  0  0
 41 42  2  0  0  0
 42 43  1  0  0  0
 43 44  2  0  0  0
 44 45  1  0  0  0
 44 46  1  0  0  0
 46 47  2  0  0  0
 47 48  1  0  0  0
 48 49  2  0  0  0
 13 14  1  0  0  0
 14 15  1  0  0  0
 15 16  1  0  0  0
 16 17  1  0  0  0
 17 18  1  0  0  0
 18 19  2  0  0  0
 18 20  1  0  0  0
 18 21  1  0  0  0
 21 22  1  0  0  0
 22 23  1  0  0  0
 23 24  1  0  0  0
 33 38  1  0  0  0
 38 39  2  0  0  0
 38 29  1  0  0  0
 37 32  1  0  0  0
 22  1  1  0  0  0
 23  3  1  0  0  0
 15 10  1  0  0  0
 49 40  1  0  0  0
 49 43  1  0  0  0
  8 25  1  0  0  0
 45 50  1  0  0  0
 45 51  1  0  0  0
 20 26  1  0  0  0
 24 27  1  0  0  0
M  END
> <minimizedAffinity>
-8.61374

$$$$
