L1:Q86WV6:143720
 OpenBabel09212617443D

 71 77  0  0  0  0  0  0  0  0999 V2000
    0.7606    1.7014   30.7292 C   0  0  2  0  0  0  0  0  0  0  0  0
   -0.2041    1.9817   31.7870 O   0  0  0  0  0  0  0  0  0  0  0  0
   -0.1388    0.8986   32.7358 C   0  0  2  0  0  0  0  0  0  0  0  0
   -0.4246    1.3913   34.1498 C   0  0  0  0  0  0  0  0  0  0  0  0
   -0.5595    0.3128   35.0634 O   0  0  0  0  0  0  0  0  0  0  0  0
   -2.0250   -0.1217   35.5811 P   0  0  2  0  0  0  0  0  0  0  0  0
   -3.0038    1.0152   35.5686 O   0  0  0  0  0  0  0  0  0  0  0  0
   -1.8841   -0.8670   37.5195 S   0  0  0  0  0  0  0  0  0  0  0  0
   -2.4745   -1.2865   34.5527 O   0  0  0  0  0  0  0  0  0  0  0  0
   -1.6158   -2.3621   34.2148 C   0  0  1  0  0  0  0  0  0  0  0  0
   -1.5075   -3.4758   35.2437 C   0  0  1  0  0  0  0  0  0  0  0  0
   -2.8052   -3.8000   35.7723 O   0  0  0  0  0  0  0  0  0  0  0  0
   -0.9927   -4.6380   34.3779 C   0  0  1  0  0  0  0  0  0  0  0  0
   -1.7537   -4.5193   33.1451 O   0  0  0  0  0  0  0  0  0  0  0  0
   -2.1553   -3.1315   32.9951 C   0  0  2  0  0  0  0  0  0  0  0  0
   -1.6064   -2.6156   31.6615 C   0  0  0  0  0  0  0  0  0  0  0  0
   -0.1934   -2.6008   31.7539 O   0  0  0  0  0  0  0  0  0  0  0  0
    0.6918   -2.2225   30.4809 P   0  0  2  0  0  0  0  0  0  0  0  0
    0.4000   -3.0174   29.2556 O   0  0  0  0  0  0  0  0  0  0  0  0
    2.1777   -2.4133   31.0573 O   0  0  0  0  0  0  0  0  0  0  0  0
    0.4883   -0.6401   30.3619 O   0  0  0  0  0  0  0  0  0  0  0  0
    1.3408    0.3048   31.0142 C   0  0  2  0  0  0  0  0  0  0  0  0
    1.2466    0.2928   32.5379 C   0  0  2  0  0  0  0  0  0  0  0  0
    1.4249   -0.9633   33.1531 O   0  0  0  0  0  0  0  0  0  0  0  0
   -1.7135    0.3360   38.0809 H   0  0  0  0  0  0  0  0  0  0  0  0
   -3.1140   -3.0319   36.2868 H   0  0  0  0  0  0  0  0  0  0  0  0
    2.3346   -3.3675   31.2535 H   0  0  0  0  0  0  0  0  0  0  0  0
    2.1667   -1.4158   32.6986 H   0  0  0  0  0  0  0  0  0  0  0  0
    4.4900    4.8716   26.4672 C   0  0  0  0  0  0  0  0  0  0  0  0
    3.7738    4.3089   27.5911 N   0  0  0  0  0  0  0  0  0  0  0  0
    2.8483    3.2907   27.3945 C   0  0  0  0  0  0  0  0  0  0  0  0
    2.1465    2.7081   28.3214 N   0  0  0  0  0  0  0  0  0  0  0  0
    2.3909    3.1988   29.5582 C   0  0  0  0  0  0  0  0  0  0  0  0
    3.2778    4.1960   29.9006 C   0  0  0  0  0  0  0  0  0  0  0  0
    3.1899    4.3575   31.2863 C   0  0  0  0  0  0  0  0  0  0  0  0
    3.8824    5.2264   32.0273 F   0  0  0  0  0  0  0  0  0  0  0  0
    2.2600    3.4725   31.7762 C   0  0  0  0  0  0  0  0  0  0  0  0
    1.7719    2.7564   30.7046 N   0  0  0  0  0  0  0  0  0  0  0  0
    4.0530    4.8264   28.8637 C   0  0  0  0  0  0  0  0  0  0  0  0
    4.8702    5.7159   29.0773 O   0  0  0  0  0  0  0  0  0  0  0  0
    0.4171   -4.6435   34.0171 N   0  0  0  0  0  0  0  0  0  0  0  0
    1.4114   -3.9803   34.7033 C   0  0  0  0  0  0  0  0  0  0  0  0
    2.6172   -4.3140   34.2869 N   0  0  0  0  0  0  0  0  0  0  0  0
    2.3835   -5.1112   33.1811 C   0  0  0  0  0  0  0  0  0  0  0  0
    3.2517   -5.7394   32.2719 C   0  0  0  0  0  0  0  0  0  0  0  0
    4.6217   -5.6306   32.3399 N   0  0  0  0  0  0  0  0  0  0  0  0
    2.7186   -6.4914   31.2847 N   0  0  0  0  0  0  0  0  0  0  0  0
    1.3750   -6.6004   31.2164 C   0  0  0  0  0  0  0  0  0  0  0  0
    0.4490   -6.0481   32.0259 N   0  0  0  0  0  0  0  0  0  0  0  0
    1.0243   -5.3166   32.9925 C   0  0  0  0  0  0  0  0  0  0  0  0
    5.0445   -5.0079   33.0117 H   0  0  0  0  0  0  0  0  0  0  0  0
    5.1621   -6.0756   31.6139 H   0  0  0  0  0  0  0  0  0  0  0  0
    0.3165    1.6944   29.7557 H   0  0  0  0  0  0  0  0  0  0  0  0
   -0.8866    0.1490   32.5814 H   0  0  0  0  0  0  0  0  0  0  0  0
   -1.3333    1.9562   34.1433 H   0  0  0  0  0  0  0  0  0  0  0  0
    0.3998    1.9957   34.4659 H   0  0  0  0  0  0  0  0  0  0  0  0
   -0.6793   -1.8612   34.0845 H   0  0  0  0  0  0  0  0  0  0  0  0
   -0.8914   -3.2362   36.0850 H   0  0  0  0  0  0  0  0  0  0  0  0
   -1.1115   -5.5339   34.9508 H   0  0  0  0  0  0  0  0  0  0  0  0
   -3.2173   -3.0033   32.9684 H   0  0  0  0  0  0  0  0  0  0  0  0
   -1.9698   -1.6264   31.4761 H   0  0  0  0  0  0  0  0  0  0  0  0
   -1.9226   -3.2464   30.8571 H   0  0  0  0  0  0  0  0  0  0  0  0
    2.3291    0.0766   30.6735 H   0  0  0  0  0  0  0  0  0  0  0  0
    2.0410    0.8285   33.0143 H   0  0  0  0  0  0  0  0  0  0  0  0
    4.1789    4.3852   25.5664 H   0  0  0  0  0  0  0  0  0  0  0  0
    5.5411    4.7274   26.6058 H   0  0  0  0  0  0  0  0  0  0  0  0
    4.2796    5.9184   26.3982 H   0  0  0  0  0  0  0  0  0  0  0  0
    2.7051    2.9677   26.4249 H   0  0  0  0  0  0  0  0  0  0  0  0
    1.9792    3.3641   32.7633 H   0  0  0  0  0  0  0  0  0  0  0  0
    1.2324   -3.2994   35.4579 H   0  0  0  0  0  0  0  0  0  0  0  0
    1.0095   -7.1811   30.4455 H   0  0  0  0  0  0  0  0  0  0  0  0
  1  2  1  0  0  0  0
  1 53  1  6  0  0  0
  2  3  1  0  0  0  0
  3  4  1  0  0  0  0
  3 54  1  6  0  0  0
  4  5  1  0  0  0  0
  4 55  1  0  0  0  0
  4 56  1  0  0  0  0
  5  6  1  0  0  0  0
  6  7  2  6  0  0  0
  6  8  1  0  0  0  0
  6  9  1  0  0  0  0
  8 25  1  0  0  0  0
  9 10  1  0  0  0  0
 10 11  1  0  0  0  0
 10 57  1  6  0  0  0
 11 12  1  0  0  0  0
 11 13  1  0  0  0  0
 11 58  1  1  0  0  0
 12 26  1  0  0  0  0
 13 41  1  0  0  0  0
 13 14  1  0  0  0  0
 13 59  1  1  0  0  0
 14 15  1  0  0  0  0
 15 16  1  0  0  0  0
 15 10  1  0  0  0  0
 15 60  1  6  0  0  0
 16 17  1  0  0  0  0
 16 61  1  0  0  0  0
 16 62  1  0  0  0  0
 17 18  1  0  0  0  0
 18 19  2  6  0  0  0
 18 20  1  0  0  0  0
 18 21  1  0  0  0  0
 20 27  1  0  0  0  0
 21 22  1  0  0  0  0
 22 23  1  0  0  0  0
 22  1  1  0  0  0  0
 22 63  1  6  0  0  0
 23 24  1  0  0  0  0
 23  3  1  0  0  0  0
 23 64  1  1  0  0  0
 24 28  1  0  0  0  0
 29 30  1  0  0  0  0
 29 65  1  0  0  0  0
 29 66  1  0  0  0  0
 29 67  1  0  0  0  0
 30 31  1  0  0  0  0
 31 32  2  0  0  0  0
 31 68  1  0  0  0  0
 32 33  1  0  0  0  0
 33 34  2  0  0  0  0
 34 35  1  0  0  0  0
 34 39  1  0  0  0  0
 35 36  1  0  0  0  0
 35 37  2  0  0  0  0
 37 38  1  0  0  0  0
 37 69  1  0  0  0  0
 38  1  1  0  0  0  0
 38 33  1  0  0  0  0
 39 40  2  0  0  0  0
 39 30  1  0  0  0  0
 41 42  1  0  0  0  0
 42 43  2  0  0  0  0
 42 70  1  0  0  0  0
 43 44  1  0  0  0  0
 44 45  2  0  0  0  0
 45 46  1  0  0  0  0
 45 47  1  0  0  0  0
 46 51  1  0  0  0  0
 46 52  1  0  0  0  0
 47 48  2  0  0  0  0
 48 49  1  0  0  0  0
 48 71  1  0  0  0  0
 49 50  2  0  0  0  0
 50 41  1  0  0  0  0
 50 44  1  0  0  0  0
M  END
>  <minimizedAffinity>
-7.97032

$$$$
