L1:Q86WV6:143720
     RDKit          3D

 71 77  0  0  0  0  0  0  0  0999 V2000
    7.0524    2.4006    3.5528 C   0  0  0  0  0  0  0  0  0  0  0  0
    6.0953    2.1836    2.4899 N   0  0  0  0  0  0  0  0  0  0  0  0
    5.5419    0.9243    2.2906 C   0  0  0  0  0  0  0  0  0  0  0  0
    4.6760    0.6079    1.3734 N   0  0  0  0  0  0  0  0  0  0  0  0
    4.3414    1.6502    0.5785 C   0  0  0  0  0  0  0  0  0  0  0  0
    4.8033    2.9455    0.6616 C   0  0  0  0  0  0  0  0  0  0  0  0
    4.1772    3.6648   -0.3605 C   0  0  0  0  0  0  0  0  0  0  0  0
    4.3470    4.9608   -0.6349 F   0  0  0  0  0  0  0  0  0  0  0  0
    3.3498    2.8159   -1.0553 C   0  0  0  0  0  0  0  0  0  0  0  0
    3.4523    1.5730   -0.4687 N   0  0  0  0  0  0  0  0  0  0  0  0
    2.7608    0.3468   -0.8616 C   0  0  2  0  0  0  0  0  0  0  0  0
    2.0574    0.5710   -2.1198 O   0  0  0  0  0  0  0  0  0  0  0  0
    0.6493    0.3884   -1.8715 C   0  0  2  0  0  0  0  0  0  0  0  0
   -0.1864    1.3039   -2.7588 C   0  0  0  0  0  0  0  0  0  0  0  0
   -1.5703    0.9986   -2.6707 O   0  0  0  0  0  0  0  0  0  0  0  0
   -2.2934    0.1982   -3.8712 P   0  0  2  0  0  5  0  0  0  0  0  0
   -1.6276    0.4189   -5.1974 O   0  0  0  0  0  0  0  0  0  0  0  0
   -4.2815    0.7994   -4.0081 S   0  0  0  0  0  0  0  0  0  0  0  0
   -2.1954   -1.3528   -3.4229 O   0  0  0  0  0  0  0  0  0  0  0  0
   -2.5494   -1.7813   -2.1193 C   0  0  1  0  0  0  0  0  0  0  0  0
   -4.0383   -1.9190   -1.8453 C   0  0  1  0  0  0  0  0  0  0  0  0
   -4.6977   -2.5509   -2.9564 O   0  0  0  0  0  0  0  0  0  0  0  0
   -4.0362   -2.8664   -0.6338 C   0  0  2  0  0  0  0  0  0  0  0  0
   -3.7061   -2.3043    0.6673 N   0  0  0  0  0  0  0  0  0  0  0  0
   -3.0347   -2.9710    1.6693 C   0  0  0  0  0  0  0  0  0  0  0  0
   -2.6899   -2.1723    2.6602 N   0  0  0  0  0  0  0  0  0  0  0  0
   -3.3008   -0.9702    2.3526 C   0  0  0  0  0  0  0  0  0  0  0  0
   -3.3564    0.2593    3.0311 C   0  0  0  0  0  0  0  0  0  0  0  0
   -2.7589    0.4743    4.2518 N   0  0  0  0  0  0  0  0  0  0  0  0
   -4.0243    1.2835    2.4574 N   0  0  0  0  0  0  0  0  0  0  0  0
   -4.6106    1.0754    1.2595 C   0  0  0  0  0  0  0  0  0  0  0  0
   -4.6242   -0.0517    0.5197 N   0  0  0  0  0  0  0  0  0  0  0  0
   -3.9450   -1.0376    1.1256 C   0  0  0  0  0  0  0  0  0  0  0  0
   -3.0090   -3.8433   -0.9556 O   0  0  0  0  0  0  0  0  0  0  0  0
   -2.0629   -3.2198   -1.8644 C   0  0  2  0  0  0  0  0  0  0  0  0
   -0.6719   -3.2853   -1.2266 C   0  0  0  0  0  0  0  0  0  0  0  0
   -0.6898   -2.4700   -0.0690 O   0  0  0  0  0  0  0  0  0  0  0  0
    0.5808   -2.4145    0.8953 P   0  0  2  0  0  5  0  0  0  0  0  0
    1.0645   -3.7400    1.3721 O   0  0  0  0  0  0  0  0  0  0  0  0
    0.0559   -1.4417    2.0592 O   0  0  0  0  0  0  0  0  0  0  0  0
    1.6266   -1.5400    0.0579 O   0  0  0  0  0  0  0  0  0  0  0  0
    1.7079   -0.1159    0.1609 C   0  0  2  0  0  0  0  0  0  0  0  0
    0.4857    0.6262   -0.3741 C   0  0  2  0  0  0  0  0  0  0  0  0
   -0.7580    0.2145    0.1472 O   0  0  0  0  0  0  0  0  0  0  0  0
    5.7564    3.2818    1.6873 C   0  0  0  0  0  0  0  0  0  0  0  0
    6.2150    4.4093    1.8398 O   0  0  0  0  0  0  0  0  0  0  0  0
    7.9859    2.7752    3.1210 H   0  0  0  0  0  0  0  0  0  0  0  0
    7.2511    1.4807    4.1088 H   0  0  0  0  0  0  0  0  0  0  0  0
    6.6597    3.1614    4.2349 H   0  0  0  0  0  0  0  0  0  0  0  0
    5.8941    0.1545    2.9962 H   0  0  0  0  0  0  0  0  0  0  0  0
    2.7177    2.9927   -1.9146 H   0  0  0  0  0  0  0  0  0  0  0  0
    3.5330   -0.4078   -1.0507 H   0  0  0  0  0  0  0  0  0  0  0  0
    0.3945   -0.6465   -2.1218 H   0  0  0  0  0  0  0  0  0  0  0  0
    0.1701    1.2473   -3.7923 H   0  0  0  0  0  0  0  0  0  0  0  0
   -0.0514    2.3485   -2.4571 H   0  0  0  0  0  0  0  0  0  0  0  0
   -3.9942    1.9810   -4.5674 H   0  0  0  0  0  0  0  0  0  0  0  0
   -2.1244   -1.0883   -1.3947 H   0  0  0  0  0  0  0  0  0  0  0  0
   -4.5456   -0.9716   -1.6774 H   0  0  0  0  0  0  0  0  0  0  0  0
   -4.6521   -1.9382   -3.7131 H   0  0  0  0  0  0  0  0  0  0  0  0
   -4.9855   -3.4004   -0.5198 H   0  0  0  0  0  0  0  0  0  0  0  0
   -2.7772   -4.0214    1.5870 H   0  0  0  0  0  0  0  0  0  0  0  0
   -2.3279   -0.2940    4.7436 H   0  0  0  0  0  0  0  0  0  0  0  0
   -2.8947    1.3742    4.6862 H   0  0  0  0  0  0  0  0  0  0  0  0
   -5.1382    1.9270    0.8388 H   0  0  0  0  0  0  0  0  0  0  0  0
   -2.0607   -3.8105   -2.7878 H   0  0  0  0  0  0  0  0  0  0  0  0
    0.0940   -2.9253   -1.9186 H   0  0  0  0  0  0  0  0  0  0  0  0
   -0.4390   -4.3129   -0.9296 H   0  0  0  0  0  0  0  0  0  0  0  0
   -0.6726   -1.8854    2.5554 H   0  0  0  0  0  0  0  0  0  0  0  0
    1.9406    0.1411    1.1980 H   0  0  0  0  0  0  0  0  0  0  0  0
    0.5904    1.6955   -0.1512 H   0  0  0  0  0  0  0  0  0  0  0  0
   -0.6460    0.0740    1.1112 H   0  0  0  0  0  0  0  0  0  0  0  0
  1  2  1  0
  2  3  1  0
  3  4  2  0
  4  5  1  0
  5  6  2  0
  6  7  1  0
  7  8  1  0
  7  9  2  0
  9 10  1  0
 10 11  1  0
 11 12  1  0
 12 13  1  0
 13 14  1  0
 14 15  1  0
 15 16  1  0
 16 17  2  0
 16 18  1  6
 16 19  1  0
 19 20  1  0
 20 21  1  0
 21 22  1  0
 21 23  1  0
 23 24  1  0
 24 25  1  0
 25 26  2  0
 26 27  1  0
 27 28  2  0
 28 29  1  0
 28 30  1  0
 30 31  2  0
 31 32  1  0
 32 33  2  0
 23 34  1  0
 34 35  1  0
 35 36  1  0
 36 37  1  0
 37 38  1  0
 38 39  2  0
 38 40  1  1
 38 41  1  0
 41 42  1  0
 42 43  1  0
 43 44  1  0
  6 45  1  0
 45 46  2  0
 45  2  1  0
 10  5  1  0
 42 11  1  0
 43 13  1  0
 35 20  1  0
 33 24  1  0
 33 27  1  0
  1 47  1  0
  1 48  1  0
  1 49  1  0
  3 50  1  0
  9 51  1  0
 11 52  1  6
 13 53  1  1
 14 54  1  0
 14 55  1  0
 18 56  1  0
 20 57  1  1
 21 58  1  1
 22 59  1  0
 23 60  1  1
 25 61  1  0
 29 62  1  0
 29 63  1  0
 31 64  1  0
 35 65  1  6
 36 66  1  0
 36 67  1  0
 40 68  1  0
 42 69  1  1
 43 70  1  6
 44 71  1  0
M  END
>  <mol_id>  (1) 
143720

>  <source_index>  (1) 
9

>  <layer>  (1) 
L1

>  <uniprot>  (1) 
Q86WV6

>  <paff>  (1) 
6.7695999999999996

>  <smiles>  (1) 
Cn1cnc2c(c(F)cn2[C@@H]2O[C@@H]3COP(=O)(S)O[C@H]4[C@@H](O)[C@H](n5cnc6c(N)ncnc65)O[C@@H]4COP(=O)(O)O[C@@H]2[C@@H]3O)c1=O

$$$$
