L1:Q86WV6:44378


 25 27  0  0  0  0  0  0  0  0999 V2000
   12.9705   10.7635   39.7834 N   0  0  0  0  0  0  0  0  0  0  0  0
   12.7112   10.3739   38.4741 C   0  0  0  0  0  0  0  0  0  0  0  0
   12.1345    9.3421   38.1536 O   0  0  0  0  0  0  0  0  0  0  0  0
   13.1989   11.3206   37.5826 N   0  0  0  0  0  0  0  0  0  0  0  0
   13.4545   11.6391   39.9012 H   0  0  0  0  0  0  0  0  0  0  0  0
   13.6592   12.1372   37.9482 H   0  0  0  0  0  0  0  0  0  0  0  0
   13.1148   11.2553   36.1999 C   0  0  0  0  0  0  0  0  0  0  0  0
   13.5768   10.2570   35.3751 C   0  0  0  0  0  0  0  0  0  0  0  0
   13.2852   10.5944   34.0810 N   0  0  0  0  0  0  0  0  0  0  0  0
   12.6347   11.8061   34.0408 C   0  0  0  0  0  0  0  0  0  0  0  0
   12.1521   12.5330   32.9441 C   0  0  0  0  0  0  0  0  0  0  0  0
   11.5235   13.7524   33.2060 C   0  0  0  0  0  0  0  0  0  0  0  0
   11.3912   14.2103   34.5099 C   0  0  0  0  0  0  0  0  0  0  0  0
   10.7836   15.3840   34.7323 F   0  0  0  0  0  0  0  0  0  0  0  0
   11.8736   13.4824   35.5977 C   0  0  0  0  0  0  0  0  0  0  0  0
   12.5126   12.2477   35.3616 C   0  0  0  0  0  0  0  0  0  0  0  0
   13.5144   10.0345   33.2712 H   0  0  0  0  0  0  0  0  0  0  0  0
   11.8093    8.6768   43.2705 C   0  0  0  0  0  0  0  0  0  0  0  0
   10.9491    8.8031   42.1777 C   0  0  0  0  0  0  0  0  0  0  0  0
   11.3622    9.5002   41.0366 C   0  0  0  0  0  0  0  0  0  0  0  0
   12.6370   10.0795   40.9712 C   0  0  0  0  0  0  0  0  0  0  0  0
   13.4905    9.9483   42.0686 C   0  0  0  0  0  0  0  0  0  0  0  0
   13.0805    9.2512   43.2126 C   0  0  0  0  0  0  0  0  0  0  0  0
   11.0436    7.3836   45.3850 N   0  0  0  0  0  0  0  0  0  0  0  0
   11.3899    7.9635   44.4412 C   0  0  0  0  0  0  0  0  0  0  0  0
 24 25  3  0  0  0
 25 18  1  0  0  0
 18 19  2  0  0  0
 19 20  1  0  0  0
 20 21  2  0  0  0
 21  1  1  0  0  0
  1  2  1  0  0  0
  2  3  2  0  0  0
  2  4  1  0  0  0
  4  7  1  0  0  0
  7  8  2  0  0  0
  8  9  1  0  0  0
  9 10  1  0  0  0
 10 11  2  0  0  0
 11 12  1  0  0  0
 12 13  2  0  0  0
 13 14  1  0  0  0
 13 15  1  0  0  0
 15 16  2  0  0  0
 21 22  1  0  0  0
 22 23  2  0  0  0
 23 18  1  0  0  0
 16  7  1  0  0  0
 16 10  1  0  0  0
  1  5  1  0  0  0
  4  6  1  0  0  0
  9 17  1  0  0  0
M  END
> <minimizedAffinity>
-9.22073

$$$$
