L1:Q86WV6:47502
     RDKit          3D

 35 37  0  0  0  0  0  0  0  0999 V2000
    0.0387   -1.3905    0.9659 O   0  0  0  0  0  0  0  0  0  0  0  0
    0.0561   -0.3916    0.2578 C   0  0  0  0  0  0  0  0  0  0  0  0
    1.2005    0.3164   -0.0905 N   0  0  0  0  0  0  0  0  0  0  0  0
    2.5333    0.0450    0.2853 C   0  0  0  0  0  0  0  0  0  0  0  0
    3.5213    0.9119   -0.1994 C   0  0  0  0  0  0  0  0  0  0  0  0
    4.8686    0.7165    0.1237 C   0  0  0  0  0  0  0  0  0  0  0  0
    5.2573   -0.3570    0.9353 C   0  0  0  0  0  0  0  0  0  0  0  0
    6.7063   -0.5581    1.3048 C   0  0  0  0  0  0  0  0  0  0  0  0
    7.0221   -1.8584    1.5594 F   0  0  0  0  0  0  0  0  0  0  0  0
    7.5650   -0.1531    0.3268 F   0  0  0  0  0  0  0  0  0  0  0  0
    7.0574    0.1388    2.4204 F   0  0  0  0  0  0  0  0  0  0  0  0
    4.2666   -1.2172    1.4262 C   0  0  0  0  0  0  0  0  0  0  0  0
    2.9186   -1.0191    1.1010 C   0  0  0  0  0  0  0  0  0  0  0  0
   -1.0673    0.1952   -0.3119 N   0  0  0  0  0  0  0  0  0  0  0  0
   -2.3741   -0.2488   -0.1747 C   0  0  0  0  0  0  0  0  0  0  0  0
   -2.8217   -1.3372    0.5361 C   0  0  0  0  0  0  0  0  0  0  0  0
   -4.1818   -1.4133    0.4052 N   0  0  0  0  0  0  0  0  0  0  0  0
   -4.6391   -0.3851   -0.3862 C   0  0  0  0  0  0  0  0  0  0  0  0
   -5.9425   -0.0689   -0.7877 C   0  0  0  0  0  0  0  0  0  0  0  0
   -6.1072    1.0502   -1.6037 C   0  0  0  0  0  0  0  0  0  0  0  0
   -7.3495    1.3689   -1.9987 F   0  0  0  0  0  0  0  0  0  0  0  0
   -5.0210    1.8223   -2.0036 C   0  0  0  0  0  0  0  0  0  0  0  0
   -5.2523    3.2009   -3.0126 Cl  0  0  0  0  0  0  0  0  0  0  0  0
   -3.7228    1.4944   -1.5944 C   0  0  0  0  0  0  0  0  0  0  0  0
   -3.5235    0.3663   -0.7673 C   0  0  0  0  0  0  0  0  0  0  0  0
    1.0688    1.1198   -0.6833 H   0  0  0  0  0  0  0  0  0  0  0  0
    3.2602    1.7543   -0.8351 H   0  0  0  0  0  0  0  0  0  0  0  0
    5.6159    1.4076   -0.2640 H   0  0  0  0  0  0  0  0  0  0  0  0
    4.5353   -2.0554    2.0683 H   0  0  0  0  0  0  0  0  0  0  0  0
    2.1951   -1.7195    1.5073 H   0  0  0  0  0  0  0  0  0  0  0  0
   -0.9444    1.0177   -0.8782 H   0  0  0  0  0  0  0  0  0  0  0  0
   -2.2938   -2.0726    1.1294 H   0  0  0  0  0  0  0  0  0  0  0  0
   -4.7647   -2.1229    0.8291 H   0  0  0  0  0  0  0  0  0  0  0  0
   -6.7998   -0.6597   -0.4853 H   0  0  0  0  0  0  0  0  0  0  0  0
   -2.8817    2.1022   -1.9110 H   0  0  0  0  0  0  0  0  0  0  0  0
  1  2  2  0
  2  3  1  0
  3  4  1  0
  4  5  2  0
  5  6  1  0
  6  7  2  0
  7  8  1  0
  8  9  1  0
  8 10  1  0
  8 11  1  0
  7 12  1  0
 12 13  2  0
  2 14  1  0
 14 15  1  0
 15 16  2  0
 16 17  1  0
 17 18  1  0
 18 19  2  0
 19 20  1  0
 20 21  1  0
 20 22  2  0
 22 23  1  0
 22 24  1  0
 24 25  2  0
 13  4  1  0
 25 15  1  0
 25 18  1  0
  3 26  1  0
  5 27  1  0
  6 28  1  0
 12 29  1  0
 13 30  1  0
 14 31  1  0
 16 32  1  0
 17 33  1  0
 19 34  1  0
 24 35  1  0
M  END
>  <mol_id>  (1) 
47502

>  <source_index>  (1) 
2

>  <layer>  (1) 
L1

>  <uniprot>  (1) 
Q86WV6

>  <paff>  (1) 
6.4949000000000003

>  <smiles>  (1) 
O=C(Nc1ccc(C(F)(F)F)cc1)Nc1c[nH]c2cc(F)c(Cl)cc12

$$$$
