L1:Q86WV6:55811
     RDKit          3D

 35 37  0  0  0  0  0  0  0  0999 V2000
    0.0182    0.3188    0.7817 O   0  0  0  0  0  0  0  0  0  0  0  0
   -0.1054   -0.5596   -0.0596 C   0  0  0  0  0  0  0  0  0  0  0  0
    0.8329   -0.8566   -1.0403 N   0  0  0  0  0  0  0  0  0  0  0  0
    2.1201   -0.3036   -1.1996 C   0  0  0  0  0  0  0  0  0  0  0  0
    2.7093    0.5804   -0.2952 C   0  0  0  0  0  0  0  0  0  0  0  0
    3.9975    1.0802   -0.5234 C   0  0  0  0  0  0  0  0  0  0  0  0
    4.7202    0.7072   -1.6641 C   0  0  0  0  0  0  0  0  0  0  0  0
    6.1167    1.2284   -1.8980 C   0  0  0  0  0  0  0  0  0  0  0  0
    7.0694    0.4032   -1.3828 F   0  0  0  0  0  0  0  0  0  0  0  0
    6.4181    1.3649   -3.2202 F   0  0  0  0  0  0  0  0  0  0  0  0
    6.3373    2.4510   -1.3398 F   0  0  0  0  0  0  0  0  0  0  0  0
    4.1327   -0.1913   -2.5643 C   0  0  0  0  0  0  0  0  0  0  0  0
    2.8456   -0.6891   -2.3338 C   0  0  0  0  0  0  0  0  0  0  0  0
   -1.1861   -1.4184   -0.1622 N   0  0  0  0  0  0  0  0  0  0  0  0
   -2.4093   -1.3073    0.4810 C   0  0  0  0  0  0  0  0  0  0  0  0
   -3.2691   -2.3859    0.5179 C   0  0  0  0  0  0  0  0  0  0  0  0
   -4.3815   -2.0273    1.2263 N   0  0  0  0  0  0  0  0  0  0  0  0
   -4.2937   -0.7118    1.6134 C   0  0  0  0  0  0  0  0  0  0  0  0
   -5.2156    0.0653    2.3279 C   0  0  0  0  0  0  0  0  0  0  0  0
   -4.8918    1.4008    2.5710 C   0  0  0  0  0  0  0  0  0  0  0  0
   -3.6938    1.9294    2.1057 C   0  0  0  0  0  0  0  0  0  0  0  0
   -3.2942    3.7514    2.4311 Br  0  0  0  0  0  0  0  0  0  0  0  0
   -2.7808    1.1421    1.3951 C   0  0  0  0  0  0  0  0  0  0  0  0
   -3.0660   -0.2207    1.1501 C   0  0  0  0  0  0  0  0  0  0  0  0
    0.5252   -1.4841   -1.7666 H   0  0  0  0  0  0  0  0  0  0  0  0
    2.1962    0.9006    0.6070 H   0  0  0  0  0  0  0  0  0  0  0  0
    4.4312    1.7679    0.2021 H   0  0  0  0  0  0  0  0  0  0  0  0
    4.6755   -0.5073   -3.4542 H   0  0  0  0  0  0  0  0  0  0  0  0
    2.4213   -1.3805   -3.0577 H   0  0  0  0  0  0  0  0  0  0  0  0
   -1.0253   -2.2924   -0.6369 H   0  0  0  0  0  0  0  0  0  0  0  0
   -3.1782   -3.3892    0.1253 H   0  0  0  0  0  0  0  0  0  0  0  0
   -5.1679   -2.6301    1.4257 H   0  0  0  0  0  0  0  0  0  0  0  0
   -6.1554   -0.3486    2.6792 H   0  0  0  0  0  0  0  0  0  0  0  0
   -5.5912    2.0246    3.1221 H   0  0  0  0  0  0  0  0  0  0  0  0
   -1.8619    1.5878    1.0307 H   0  0  0  0  0  0  0  0  0  0  0  0
  1  2  2  0
  2  3  1  0
  3  4  1  0
  4  5  2  0
  5  6  1  0
  6  7  2  0
  7  8  1  0
  8  9  1  0
  8 10  1  0
  8 11  1  0
  7 12  1  0
 12 13  2  0
  2 14  1  0
 14 15  1  0
 15 16  2  0
 16 17  1  0
 17 18  1  0
 18 19  2  0
 19 20  1  0
 20 21  2  0
 21 22  1  0
 21 23  1  0
 23 24  2  0
 13  4  1  0
 24 15  1  0
 24 18  1  0
  3 25  1  0
  5 26  1  0
  6 27  1  0
 12 28  1  0
 13 29  1  0
 14 30  1  0
 16 31  1  0
 17 32  1  0
 19 33  1  0
 20 34  1  0
 23 35  1  0
M  END
>  <mol_id>  (1) 
55811

>  <source_index>  (1) 
3

>  <layer>  (1) 
L1

>  <uniprot>  (1) 
Q86WV6

>  <paff>  (1) 
7.1738999999999997

>  <smiles>  (1) 
O=C(Nc1ccc(C(F)(F)F)cc1)Nc1c[nH]c2ccc(Br)cc12

$$$$
