L1:Q86WV6:55811
 OpenBabel09212617433D

 35 37  0  0  0  0  0  0  0  0999 V2000
   12.8135    9.3703   39.0555 O   0  0  0  0  0  0  0  0  0  0  0  0
   12.6800   10.4994   39.5051 C   0  0  0  0  0  0  0  0  0  0  0  0
   12.2855   10.7946   40.8041 N   0  0  0  0  0  0  0  0  0  0  0  0
   12.9209   11.6692   38.8056 N   0  0  0  0  0  0  0  0  0  0  0  0
   12.0522   11.7586   40.9837 H   0  0  0  0  0  0  0  0  0  0  0  0
   13.1205   12.4906   39.3538 H   0  0  0  0  0  0  0  0  0  0  0  0
   13.1156   11.8043   37.4395 C   0  0  0  0  0  0  0  0  0  0  0  0
   14.2976   12.3310   36.9605 C   0  0  0  0  0  0  0  0  0  0  0  0
   14.2477   12.3320   35.5947 N   0  0  0  0  0  0  0  0  0  0  0  0
   13.0300   11.8630   35.1642 C   0  0  0  0  0  0  0  0  0  0  0  0
   12.5467   11.7220   33.8562 C   0  0  0  0  0  0  0  0  0  0  0  0
   11.2474   11.2403   33.6903 C   0  0  0  0  0  0  0  0  0  0  0  0
   10.4688   10.9233   34.7968 C   0  0  0  0  0  0  0  0  0  0  0  0
    8.7014   10.2947   34.5392 Br  0  0  0  0  0  0  0  0  0  0  0  0
   10.9641   11.0668   36.0977 C   0  0  0  0  0  0  0  0  0  0  0  0
   12.2838   11.5308   36.3025 C   0  0  0  0  0  0  0  0  0  0  0  0
   14.9874   12.6474   34.9823 H   0  0  0  0  0  0  0  0  0  0  0  0
   12.0692    9.8935   41.8668 C   0  0  0  0  0  0  0  0  0  0  0  0
   12.8383    9.8567   43.0302 C   0  0  0  0  0  0  0  0  0  0  0  0
   12.5534    8.9336   44.0442 C   0  0  0  0  0  0  0  0  0  0  0  0
   11.4942    8.0263   43.9115 C   0  0  0  0  0  0  0  0  0  0  0  0
   10.7141    8.0737   42.7487 C   0  0  0  0  0  0  0  0  0  0  0  0
   11.0010    8.9970   41.7374 C   0  0  0  0  0  0  0  0  0  0  0  0
   11.1737    7.0471   45.0138 C   0  0  0  0  0  0  0  0  0  0  0  0
    9.8917    7.1685   45.4564 F   0  0  0  0  0  0  0  0  0  0  0  0
   11.3122    5.7477   44.6267 F   0  0  0  0  0  0  0  0  0  0  0  0
   11.9654    7.1927   46.1124 F   0  0  0  0  0  0  0  0  0  0  0  0
   15.0856   12.6671   37.5359 H   0  0  0  0  0  0  0  0  0  0  0  0
   13.1324   11.9664   33.0424 H   0  0  0  0  0  0  0  0  0  0  0  0
   10.8626   11.1188   32.7404 H   0  0  0  0  0  0  0  0  0  0  0  0
   10.3668   10.8342   36.9065 H   0  0  0  0  0  0  0  0  0  0  0  0
   13.6243   10.5156   43.1446 H   0  0  0  0  0  0  0  0  0  0  0  0
   13.1307    8.9216   44.8995 H   0  0  0  0  0  0  0  0  0  0  0  0
    9.9215    7.4223   42.6372 H   0  0  0  0  0  0  0  0  0  0  0  0
   10.4185    9.0177   40.8858 H   0  0  0  0  0  0  0  0  0  0  0  0
  1  2  2  0  0  0  0
  2  3  1  0  0  0  0
  2  4  1  0  0  0  0
  3 18  1  0  0  0  0
  3  5  1  0  0  0  0
  4  7  1  0  0  0  0
  4  6  1  0  0  0  0
  7  8  2  0  0  0  0
  8  9  1  0  0  0  0
  8 28  1  0  0  0  0
  9 10  1  0  0  0  0
  9 17  1  0  0  0  0
 10 11  2  0  0  0  0
 11 12  1  0  0  0  0
 11 29  1  0  0  0  0
 12 13  2  0  0  0  0
 12 30  1  0  0  0  0
 13 14  1  0  0  0  0
 13 15  1  0  0  0  0
 15 16  2  0  0  0  0
 15 31  1  0  0  0  0
 16  7  1  0  0  0  0
 16 10  1  0  0  0  0
 18 19  2  0  0  0  0
 19 20  1  0  0  0  0
 19 32  1  0  0  0  0
 20 21  2  0  0  0  0
 20 33  1  0  0  0  0
 21 24  1  0  0  0  0
 21 22  1  0  0  0  0
 22 23  2  0  0  0  0
 22 34  1  0  0  0  0
 23 18  1  0  0  0  0
 23 35  1  0  0  0  0
 24 25  1  0  0  0  0
 24 26  1  0  0  0  0
 24 27  1  0  0  0  0
M  END
>  <minimizedAffinity>
-9.59642

$$$$
