L1:Q86WV6:56848


 28 30  0  0  0  0  0  0  0  0999 V2000
   10.3887    8.3469   38.0278 O   0  0  0  0  0  0  0  0  0  0  0  0
   10.1862    8.1095   36.8437 C   0  0  0  0  0  0  0  0  0  0  0  0
   10.2256    6.8447   36.2683 N   0  0  0  0  0  0  0  0  0  0  0  0
    9.8841    9.0678   35.8839 N   0  0  0  0  0  0  0  0  0  0  0  0
   10.0415    6.7953   35.2794 H   0  0  0  0  0  0  0  0  0  0  0  0
    9.7335    8.7674   34.9355 H   0  0  0  0  0  0  0  0  0  0  0  0
    9.7652   10.4315   36.1063 C   0  0  0  0  0  0  0  0  0  0  0  0
    9.0320   11.0635   37.0828 C   0  0  0  0  0  0  0  0  0  0  0  0
    9.1939   12.4153   36.9428 N   0  0  0  0  0  0  0  0  0  0  0  0
   10.0279   12.6850   35.8823 C   0  0  0  0  0  0  0  0  0  0  0  0
   10.4709   13.9132   35.3740 C   0  0  0  0  0  0  0  0  0  0  0  0
   11.3243   13.8757   34.2728 C   0  0  0  0  0  0  0  0  0  0  0  0
   11.7692   15.0313   33.7585 F   0  0  0  0  0  0  0  0  0  0  0  0
   11.7164   12.6709   33.7066 C   0  0  0  0  0  0  0  0  0  0  0  0
   12.5385   12.6647   32.6474 F   0  0  0  0  0  0  0  0  0  0  0  0
   11.2704   11.4515   34.2192 C   0  0  0  0  0  0  0  0  0  0  0  0
   10.4048   11.4540   35.3344 C   0  0  0  0  0  0  0  0  0  0  0  0
    8.7626   13.1134   37.5339 H   0  0  0  0  0  0  0  0  0  0  0  0
   10.4952    5.6137   36.9030 C   0  0  0  0  0  0  0  0  0  0  0  0
   11.6991    5.5124   37.6122 C   0  0  0  0  0  0  0  0  0  0  0  0
   12.0460    4.3281   38.2718 C   0  0  0  0  0  0  0  0  0  0  0  0
   11.1901    3.2196   38.2410 C   0  0  0  0  0  0  0  0  0  0  0  0
    9.9911    3.3202   37.5237 C   0  0  0  0  0  0  0  0  0  0  0  0
    9.6465    4.5071   36.8644 C   0  0  0  0  0  0  0  0  0  0  0  0
   11.5708    1.9333   38.9318 C   0  0  0  0  0  0  0  0  0  0  0  0
   12.8138    1.4887   38.5960 F   0  0  0  0  0  0  0  0  0  0  0  0
   11.5691    2.0540   40.2879 F   0  0  0  0  0  0  0  0  0  0  0  0
   10.7209    0.9063   38.6478 F   0  0  0  0  0  0  0  0  0  0  0  0
  1  2  2  0  0  0
  2  3  1  0  0  0
  3 19  1  0  0  0
 19 20  2  0  0  0
 20 21  1  0  0  0
 21 22  2  0  0  0
 22 25  1  0  0  0
 25 26  1  0  0  0
 25 27  1  0  0  0
 25 28  1  0  0  0
 22 23  1  0  0  0
 23 24  2  0  0  0
  2  4  1  0  0  0
  4  7  1  0  0  0
  7  8  2  0  0  0
  8  9  1  0  0  0
  9 10  1  0  0  0
 10 11  2  0  0  0
 11 12  1  0  0  0
 12 13  1  0  0  0
 12 14  2  0  0  0
 14 15  1  0  0  0
 14 16  1  0  0  0
 16 17  2  0  0  0
 24 19  1  0  0  0
 17  7  1  0  0  0
 17 10  1  0  0  0
  3  5  1  0  0  0
  4  6  1  0  0  0
  9 18  1  0  0  0
M  END
> <minimizedAffinity>
-10.07559

$$$$
