L1:Q86WV6:56848
     RDKit          3D

 35 37  0  0  0  0  0  0  0  0999 V2000
    0.0230   -1.3663    0.9827 O   0  0  0  0  0  0  0  0  0  0  0  0
    0.0497   -0.3747    0.2647 C   0  0  0  0  0  0  0  0  0  0  0  0
    1.1944    0.3483   -0.0503 N   0  0  0  0  0  0  0  0  0  0  0  0
    2.5175    0.1009    0.3731 C   0  0  0  0  0  0  0  0  0  0  0  0
    3.5077    0.9808   -0.0827 C   0  0  0  0  0  0  0  0  0  0  0  0
    4.8459    0.8096    0.2885 C   0  0  0  0  0  0  0  0  0  0  0  0
    5.2213   -0.2445    1.1312 C   0  0  0  0  0  0  0  0  0  0  0  0
    6.6664   -0.4461    1.5155 C   0  0  0  0  0  0  0  0  0  0  0  0
    6.8227   -1.0656    2.7185 F   0  0  0  0  0  0  0  0  0  0  0  0
    7.3411   -1.2076    0.6108 F   0  0  0  0  0  0  0  0  0  0  0  0
    7.3594    0.7238    1.6086 F   0  0  0  0  0  0  0  0  0  0  0  0
    4.2308   -1.1284    1.5784 C   0  0  0  0  0  0  0  0  0  0  0  0
    2.8920   -0.9545    1.2051 C   0  0  0  0  0  0  0  0  0  0  0  0
   -1.0617    0.1877   -0.3512 N   0  0  0  0  0  0  0  0  0  0  0  0
   -2.3656   -0.2747   -0.2542 C   0  0  0  0  0  0  0  0  0  0  0  0
   -2.8222   -1.3604    0.4552 C   0  0  0  0  0  0  0  0  0  0  0  0
   -4.1756   -1.4593    0.2772 N   0  0  0  0  0  0  0  0  0  0  0  0
   -4.6202   -0.4487   -0.5438 C   0  0  0  0  0  0  0  0  0  0  0  0
   -5.9143   -0.1582   -0.9955 C   0  0  0  0  0  0  0  0  0  0  0  0
   -6.0636    0.9471   -1.8312 C   0  0  0  0  0  0  0  0  0  0  0  0
   -7.2873    1.2564   -2.2835 F   0  0  0  0  0  0  0  0  0  0  0  0
   -4.9742    1.7245   -2.1981 C   0  0  0  0  0  0  0  0  0  0  0  0
   -5.1472    2.7824   -3.0036 F   0  0  0  0  0  0  0  0  0  0  0  0
   -3.6880    1.4281   -1.7437 C   0  0  0  0  0  0  0  0  0  0  0  0
   -3.5019    0.3151   -0.8955 C   0  0  0  0  0  0  0  0  0  0  0  0
    1.0701    1.1465   -0.6517 H   0  0  0  0  0  0  0  0  0  0  0  0
    3.2558    1.8133   -0.7351 H   0  0  0  0  0  0  0  0  0  0  0  0
    5.5960    1.5065   -0.0831 H   0  0  0  0  0  0  0  0  0  0  0  0
    4.4920   -1.9644    2.2266 H   0  0  0  0  0  0  0  0  0  0  0  0
    2.1672   -1.6683    1.5849 H   0  0  0  0  0  0  0  0  0  0  0  0
   -0.9318    1.0043   -0.9244 H   0  0  0  0  0  0  0  0  0  0  0  0
   -2.3048   -2.0797    1.0768 H   0  0  0  0  0  0  0  0  0  0  0  0
   -4.7624   -2.1721    0.6899 H   0  0  0  0  0  0  0  0  0  0  0  0
   -6.7729   -0.7580   -0.7158 H   0  0  0  0  0  0  0  0  0  0  0  0
   -2.8591    2.0560   -2.0495 H   0  0  0  0  0  0  0  0  0  0  0  0
  1  2  2  0
  2  3  1  0
  3  4  1  0
  4  5  2  0
  5  6  1  0
  6  7  2  0
  7  8  1  0
  8  9  1  0
  8 10  1  0
  8 11  1  0
  7 12  1  0
 12 13  2  0
  2 14  1  0
 14 15  1  0
 15 16  2  0
 16 17  1  0
 17 18  1  0
 18 19  2  0
 19 20  1  0
 20 21  1  0
 20 22  2  0
 22 23  1  0
 22 24  1  0
 24 25  2  0
 13  4  1  0
 25 15  1  0
 25 18  1  0
  3 26  1  0
  5 27  1  0
  6 28  1  0
 12 29  1  0
 13 30  1  0
 14 31  1  0
 16 32  1  0
 17 33  1  0
 19 34  1  0
 24 35  1  0
M  END
>  <mol_id>  (1) 
56848

>  <source_index>  (1) 
4

>  <layer>  (1) 
L1

>  <uniprot>  (1) 
Q86WV6

>  <paff>  (1) 
6.5670000000000002

>  <smiles>  (1) 
O=C(Nc1ccc(C(F)(F)F)cc1)Nc1c[nH]c2cc(F)c(F)cc12

$$$$
