L1:Q86WV6:6252


 26 27  0  0  0  0  0  0  0  0999 V2000
   12.3644    8.4676   35.6797 C   0  0  0  0  0  0  0  0  0  0  0  0
   13.3540    9.2809   36.2325 C   0  0  0  0  0  0  0  0  0  0  0  0
   13.5747   10.5757   35.7399 C   0  0  0  0  0  0  0  0  0  0  0  0
   12.8067   11.0694   34.6878 C   0  0  0  0  0  0  0  0  0  0  0  0
   11.8153   10.2593   34.1351 C   0  0  0  0  0  0  0  0  0  0  0  0
   11.5949    8.9685   34.6246 C   0  0  0  0  0  0  0  0  0  0  0  0
   11.4419    7.4711   38.3270 O   0  0  0  0  0  0  0  0  0  0  0  0
   11.6537    6.7441   37.3631 C   0  0  0  0  0  0  0  0  0  0  0  0
   12.0818    7.1594   36.1149 N   0  0  0  0  0  0  0  0  0  0  0  0
   12.2058    6.4184   35.4326 H   0  0  0  0  0  0  0  0  0  0  0  0
   11.4666    5.3040   37.4399 C   0  0  0  0  0  0  0  0  0  0  0  0
   10.8891    4.4125   36.5495 C   0  0  0  0  0  0  0  0  0  0  0  0
   10.9754    3.1230   37.1336 C   0  0  0  0  0  0  0  0  0  0  0  0
   11.6004    3.3141   38.3420 C   0  0  0  0  0  0  0  0  0  0  0  0
   11.9070    4.6233   38.5500 O   0  0  0  0  0  0  0  0  0  0  0  0
   11.9696    2.4035   39.3793 N   0  0  0  0  0  0  0  0  0  0  0  0
   12.8656    1.5861   39.1324 O   0  0  0  0  0  0  0  0  0  0  0  0
   11.3552    2.5101   40.4486 O   0  0  0  0  0  0  0  0  0  0  0  0
   12.9166   12.3068   34.1190 O   0  0  0  0  0  0  0  0  0  0  0  0
   11.7072   13.0053   33.8411 C   0  0  0  0  0  0  0  0  0  0  0  0
   11.3613   13.8710   35.0507 C   0  0  0  0  0  0  0  0  0  0  0  0
   10.2224   13.3343   35.9238 C   0  0  0  0  0  0  0  0  0  0  0  0
   10.6423   12.6006   37.1806 C   0  0  0  0  0  0  0  0  0  0  0  0
   10.5118   11.2657   37.0547 F   0  0  0  0  0  0  0  0  0  0  0  0
    9.8466   12.9772   38.2114 F   0  0  0  0  0  0  0  0  0  0  0  0
   11.9124   12.8864   37.5295 F   0  0  0  0  0  0  0  0  0  0  0  0
  7  8  2  0  0  0
  8  9  1  0  0  0
  9  1  1  0  0  0
  1  2  2  0  0  0
  2  3  1  0  0  0
  3  4  2  0  0  0
  4 19  1  0  0  0
 19 20  1  0  0  0
 20 21  1  0  0  0
 21 22  1  0  0  0
 22 23  1  0  0  0
 23 24  1  0  0  0
 23 25  1  0  0  0
 23 26  1  0  0  0
  4  5  1  0  0  0
  5  6  2  0  0  0
  8 11  1  0  0  0
 11 12  2  0  0  0
 12 13  1  0  0  0
 13 14  2  0  0  0
 14 16  1  0  0  0
 16 17  2  0  0  0
 16 18  1  0  0  0
 14 15  1  0  0  0
  6  1  1  0  0  0
 15 11  1  0  0  0
  9 10  1  0  0  0
M  CHG 1  16   1
M  CHG 1  18  -1
M  END
> <minimizedAffinity>
-9.06215

$$$$
