L1:Q86WV6:6252
     RDKit          3D

 38 39  0  0  0  0  0  0  0  0999 V2000
    2.9565   -2.1990    0.8404 O   0  0  0  0  0  0  0  0  0  0  0  0
    3.2514   -1.0133    0.7418 C   0  0  0  0  0  0  0  0  0  0  0  0
    2.4032    0.0002    0.3331 N   0  0  0  0  0  0  0  0  0  0  0  0
    1.0520   -0.0934   -0.0492 C   0  0  0  0  0  0  0  0  0  0  0  0
    0.3252   -1.2840   -0.0745 C   0  0  0  0  0  0  0  0  0  0  0  0
   -1.0214   -1.2928   -0.4674 C   0  0  0  0  0  0  0  0  0  0  0  0
   -1.6546   -0.1089   -0.8386 C   0  0  0  0  0  0  0  0  0  0  0  0
   -2.9535    0.0201   -1.2422 O   0  0  0  0  0  0  0  0  0  0  0  0
   -3.7712   -1.1444   -1.1870 C   0  0  0  0  0  0  0  0  0  0  0  0
   -5.1799   -0.7666   -1.6398 C   0  0  0  0  0  0  0  0  0  0  0  0
   -6.0285   -0.0541   -0.5817 C   0  0  0  0  0  0  0  0  0  0  0  0
   -5.4596    1.2411   -0.0403 C   0  0  0  0  0  0  0  0  0  0  0  0
   -4.3943    1.0315    0.7573 F   0  0  0  0  0  0  0  0  0  0  0  0
   -6.3968    1.8668    0.7130 F   0  0  0  0  0  0  0  0  0  0  0  0
   -5.1083    2.0881   -1.0281 F   0  0  0  0  0  0  0  0  0  0  0  0
   -0.9297    1.0821   -0.8165 C   0  0  0  0  0  0  0  0  0  0  0  0
    0.4122    1.0924   -0.4244 C   0  0  0  0  0  0  0  0  0  0  0  0
    4.5862   -0.5318    1.0597 C   0  0  0  0  0  0  0  0  0  0  0  0
    5.7153   -1.2043    1.5003 C   0  0  0  0  0  0  0  0  0  0  0  0
    6.7443   -0.2399    1.6508 C   0  0  0  0  0  0  0  0  0  0  0  0
    6.1739    0.9571    1.2916 C   0  0  0  0  0  0  0  0  0  0  0  0
    6.6989    2.2848    1.2348 N   0  0  0  0  0  4  0  0  0  0  0  0
    5.9370    3.1871    0.8643 O   0  0  0  0  0  0  0  0  0  0  0  0
    7.8842    2.4216    1.5642 O   0  0  0  0  0  1  0  0  0  0  0  0
    4.8707    0.8069    0.9306 O   0  0  0  0  0  0  0  0  0  0  0  0
    2.8173    0.9264    0.3100 H   0  0  0  0  0  0  0  0  0  0  0  0
    0.7724   -2.2325    0.2058 H   0  0  0  0  0  0  0  0  0  0  0  0
   -1.5391   -2.2460   -0.4720 H   0  0  0  0  0  0  0  0  0  0  0  0
   -3.8000   -1.5588   -0.1722 H   0  0  0  0  0  0  0  0  0  0  0  0
   -3.3763   -1.8950   -1.8822 H   0  0  0  0  0  0  0  0  0  0  0  0
   -5.7103   -1.6831   -1.9257 H   0  0  0  0  0  0  0  0  0  0  0  0
   -5.1225   -0.1323   -2.5329 H   0  0  0  0  0  0  0  0  0  0  0  0
   -7.0102    0.1565   -1.0232 H   0  0  0  0  0  0  0  0  0  0  0  0
   -6.2070   -0.7375    0.2570 H   0  0  0  0  0  0  0  0  0  0  0  0
   -1.4153    2.0123   -1.1025 H   0  0  0  0  0  0  0  0  0  0  0  0
    0.9414    2.0418   -0.4178 H   0  0  0  0  0  0  0  0  0  0  0  0
    5.7726   -2.2696    1.6868 H   0  0  0  0  0  0  0  0  0  0  0  0
    7.7637   -0.3975    1.9771 H   0  0  0  0  0  0  0  0  0  0  0  0
  1  2  2  0
  2  3  1  0
  3  4  1  0
  4  5  2  0
  5  6  1  0
  6  7  2  0
  7  8  1  0
  8  9  1  0
  9 10  1  0
 10 11  1  0
 11 12  1  0
 12 13  1  0
 12 14  1  0
 12 15  1  0
  7 16  1  0
 16 17  2  0
  2 18  1  0
 18 19  2  0
 19 20  1  0
 20 21  2  0
 21 22  1  0
 22 23  2  0
 22 24  1  0
 21 25  1  0
 17  4  1  0
 25 18  1  0
  3 26  1  0
  5 27  1  0
  6 28  1  0
  9 29  1  0
  9 30  1  0
 10 31  1  0
 10 32  1  0
 11 33  1  0
 11 34  1  0
 16 35  1  0
 17 36  1  0
 19 37  1  0
 20 38  1  0
M  CHG  2  22   1  24  -1
M  END
>  <mol_id>  (1) 
6252

>  <source_index>  (1) 
0

>  <layer>  (1) 
L1

>  <uniprot>  (1) 
Q86WV6

>  <paff>  (1) 
6.1078999999999999

>  <smiles>  (1) 
O=C(Nc1ccc(OCCCC(F)(F)F)cc1)c1ccc([N+](=O)[O-])o1

$$$$
