L1:Q86WV6:71154
     RDKit          3D

 35 37  0  0  0  0  0  0  0  0999 V2000
    0.3623   -0.5802    1.5311 O   0  0  0  0  0  0  0  0  0  0  0  0
    0.1390   -0.1543    0.4047 C   0  0  0  0  0  0  0  0  0  0  0  0
    1.1142    0.2504   -0.4996 N   0  0  0  0  0  0  0  0  0  0  0  0
    2.5134    0.2545   -0.3192 C   0  0  0  0  0  0  0  0  0  0  0  0
    3.1569   -0.1687    0.8441 C   0  0  0  0  0  0  0  0  0  0  0  0
    4.5538   -0.1316    0.9406 C   0  0  0  0  0  0  0  0  0  0  0  0
    5.3347    0.3365   -0.1241 C   0  0  0  0  0  0  0  0  0  0  0  0
    6.8402    0.3547   -0.0274 C   0  0  0  0  0  0  0  0  0  0  0  0
    7.4029   -0.7932   -0.4958 F   0  0  0  0  0  0  0  0  0  0  0  0
    7.4064    1.3665   -0.7440 F   0  0  0  0  0  0  0  0  0  0  0  0
    7.2968    0.5037    1.2473 F   0  0  0  0  0  0  0  0  0  0  0  0
    4.6883    0.7527   -1.2951 C   0  0  0  0  0  0  0  0  0  0  0  0
    3.2927    0.7145   -1.3885 C   0  0  0  0  0  0  0  0  0  0  0  0
   -1.1255   -0.0067   -0.1512 N   0  0  0  0  0  0  0  0  0  0  0  0
   -2.3278   -0.3120    0.4689 C   0  0  0  0  0  0  0  0  0  0  0  0
   -2.5181   -0.8128    1.7351 C   0  0  0  0  0  0  0  0  0  0  0  0
   -3.8622   -0.9661    1.9431 N   0  0  0  0  0  0  0  0  0  0  0  0
   -4.5639   -0.5718    0.8272 C   0  0  0  0  0  0  0  0  0  0  0  0
   -5.9452   -0.5552    0.5915 C   0  0  0  0  0  0  0  0  0  0  0  0
   -6.3804   -0.0963   -0.6538 C   0  0  0  0  0  0  0  0  0  0  0  0
   -5.4644    0.3233   -1.6090 C   0  0  0  0  0  0  0  0  0  0  0  0
   -5.9100    0.7588   -2.7956 F   0  0  0  0  0  0  0  0  0  0  0  0
   -4.0905    0.3045   -1.3686 C   0  0  0  0  0  0  0  0  0  0  0  0
   -3.6237   -0.1542   -0.1195 C   0  0  0  0  0  0  0  0  0  0  0  0
    0.7869    0.5827   -1.3922 H   0  0  0  0  0  0  0  0  0  0  0  0
    2.6029   -0.5378    1.7020 H   0  0  0  0  0  0  0  0  0  0  0  0
    5.0268   -0.4721    1.8612 H   0  0  0  0  0  0  0  0  0  0  0  0
    5.2701    1.1119   -2.1430 H   0  0  0  0  0  0  0  0  0  0  0  0
    2.8279    1.0495   -2.3125 H   0  0  0  0  0  0  0  0  0  0  0  0
   -1.2020    0.3519   -1.0881 H   0  0  0  0  0  0  0  0  0  0  0  0
   -1.8160   -1.0769    2.5150 H   0  0  0  0  0  0  0  0  0  0  0  0
   -4.2797   -1.3182    2.7937 H   0  0  0  0  0  0  0  0  0  0  0  0
   -6.6550   -0.8849    1.3435 H   0  0  0  0  0  0  0  0  0  0  0  0
   -7.4412   -0.0643   -0.8846 H   0  0  0  0  0  0  0  0  0  0  0  0
   -3.4108    0.6410   -2.1424 H   0  0  0  0  0  0  0  0  0  0  0  0
  1  2  2  0
  2  3  1  0
  3  4  1  0
  4  5  2  0
  5  6  1  0
  6  7  2  0
  7  8  1  0
  8  9  1  0
  8 10  1  0
  8 11  1  0
  7 12  1  0
 12 13  2  0
  2 14  1  0
 14 15  1  0
 15 16  2  0
 16 17  1  0
 17 18  1  0
 18 19  2  0
 19 20  1  0
 20 21  2  0
 21 22  1  0
 21 23  1  0
 23 24  2  0
 13  4  1  0
 24 15  1  0
 24 18  1  0
  3 25  1  0
  5 26  1  0
  6 27  1  0
 12 28  1  0
 13 29  1  0
 14 30  1  0
 16 31  1  0
 17 32  1  0
 19 33  1  0
 20 34  1  0
 23 35  1  0
M  END
>  <mol_id>  (1) 
71154

>  <source_index>  (1) 
5

>  <layer>  (1) 
L1

>  <uniprot>  (1) 
Q86WV6

>  <paff>  (1) 
7.0655000000000001

>  <smiles>  (1) 
O=C(Nc1ccc(C(F)(F)F)cc1)Nc1c[nH]c2ccc(F)cc12

$$$$
