L1:Q86WV6:71154
 OpenBabel09212617433D

 35 37  0  0  0  0  0  0  0  0999 V2000
   10.0544    8.2051   37.4620 O   0  0  0  0  0  0  0  0  0  0  0  0
   10.2115    7.8841   36.2905 C   0  0  0  0  0  0  0  0  0  0  0  0
   10.5298    6.6034   35.8533 N   0  0  0  0  0  0  0  0  0  0  0  0
   10.0970    8.7485   35.2091 N   0  0  0  0  0  0  0  0  0  0  0  0
   10.6322    6.4823   34.8588 H   0  0  0  0  0  0  0  0  0  0  0  0
   10.2443    8.3848   34.2827 H   0  0  0  0  0  0  0  0  0  0  0  0
    9.7911   10.0995   35.2760 C   0  0  0  0  0  0  0  0  0  0  0  0
    8.5627   10.6935   35.1068 C   0  0  0  0  0  0  0  0  0  0  0  0
    8.7109   12.0459   35.2563 N   0  0  0  0  0  0  0  0  0  0  0  0
   10.0253   12.3535   35.5228 C   0  0  0  0  0  0  0  0  0  0  0  0
   10.6316   13.5971   35.7456 C   0  0  0  0  0  0  0  0  0  0  0  0
   12.0056   13.6078   35.9961 C   0  0  0  0  0  0  0  0  0  0  0  0
   12.7264   12.4214   36.0194 C   0  0  0  0  0  0  0  0  0  0  0  0
   14.0438   12.4612   36.2621 F   0  0  0  0  0  0  0  0  0  0  0  0
   12.1172   11.1864   35.7969 C   0  0  0  0  0  0  0  0  0  0  0  0
   10.7310   11.1467   35.5415 C   0  0  0  0  0  0  0  0  0  0  0  0
    7.9629   12.7217   35.1818 H   0  0  0  0  0  0  0  0  0  0  0  0
   10.7299    5.4467   36.6358 C   0  0  0  0  0  0  0  0  0  0  0  0
    9.9289    4.3062   36.5712 C   0  0  0  0  0  0  0  0  0  0  0  0
   10.1977    3.1985   37.3853 C   0  0  0  0  0  0  0  0  0  0  0  0
   11.2707    3.2130   38.2858 C   0  0  0  0  0  0  0  0  0  0  0  0
   12.0799    4.3550   38.3435 C   0  0  0  0  0  0  0  0  0  0  0  0
   11.8088    5.4600   37.5291 C   0  0  0  0  0  0  0  0  0  0  0  0
   11.5729    2.0108   39.1458 C   0  0  0  0  0  0  0  0  0  0  0  0
   12.8698    1.6106   39.0388 F   0  0  0  0  0  0  0  0  0  0  0  0
   11.3620    2.2403   40.4727 F   0  0  0  0  0  0  0  0  0  0  0  0
   10.8169    0.9213   38.8342 F   0  0  0  0  0  0  0  0  0  0  0  0
    7.6784   10.2026   34.9017 H   0  0  0  0  0  0  0  0  0  0  0  0
   10.0839   14.4715   35.7254 H   0  0  0  0  0  0  0  0  0  0  0  0
   12.4885   14.5040   36.1651 H   0  0  0  0  0  0  0  0  0  0  0  0
   12.6717   10.3163   35.8188 H   0  0  0  0  0  0  0  0  0  0  0  0
    9.1309    4.2784   35.9175 H   0  0  0  0  0  0  0  0  0  0  0  0
    9.5978    2.3613   37.3209 H   0  0  0  0  0  0  0  0  0  0  0  0
   12.8824    4.3815   38.9918 H   0  0  0  0  0  0  0  0  0  0  0  0
   12.4115    6.2957   37.5873 H   0  0  0  0  0  0  0  0  0  0  0  0
  1  2  2  0  0  0  0
  2  3  1  0  0  0  0
  2  4  1  0  0  0  0
  3 18  1  0  0  0  0
  3  5  1  0  0  0  0
  4  7  1  0  0  0  0
  4  6  1  0  0  0  0
  7  8  2  0  0  0  0
  8  9  1  0  0  0  0
  8 28  1  0  0  0  0
  9 10  1  0  0  0  0
  9 17  1  0  0  0  0
 10 11  2  0  0  0  0
 11 12  1  0  0  0  0
 11 29  1  0  0  0  0
 12 13  2  0  0  0  0
 12 30  1  0  0  0  0
 13 14  1  0  0  0  0
 13 15  1  0  0  0  0
 15 16  2  0  0  0  0
 15 31  1  0  0  0  0
 16  7  1  0  0  0  0
 16 10  1  0  0  0  0
 18 19  2  0  0  0  0
 19 20  1  0  0  0  0
 19 32  1  0  0  0  0
 20 21  2  0  0  0  0
 20 33  1  0  0  0  0
 21 24  1  0  0  0  0
 21 22  1  0  0  0  0
 22 23  2  0  0  0  0
 22 34  1  0  0  0  0
 23 18  1  0  0  0  0
 23 35  1  0  0  0  0
 24 25  1  0  0  0  0
 24 26  1  0  0  0  0
 24 27  1  0  0  0  0
M  END
>  <minimizedAffinity>
-9.58089

$$$$
