L1:Q86WV6:76654
     RDKit          3D

 35 37  0  0  0  0  0  0  0  0999 V2000
   -0.3160   -0.3648   -0.7482 O   0  0  0  0  0  0  0  0  0  0  0  0
   -0.0668    0.5561    0.0162 C   0  0  0  0  0  0  0  0  0  0  0  0
    1.1998    0.8595    0.4908 N   0  0  0  0  0  0  0  0  0  0  0  0
    2.4239    0.2425    0.1539 C   0  0  0  0  0  0  0  0  0  0  0  0
    2.5695   -0.7629   -0.8010 C   0  0  0  0  0  0  0  0  0  0  0  0
    3.8332   -1.3103   -1.0654 C   0  0  0  0  0  0  0  0  0  0  0  0
    4.9751   -0.8559   -0.3868 C   0  0  0  0  0  0  0  0  0  0  0  0
    6.3296   -1.4626   -0.6570 C   0  0  0  0  0  0  0  0  0  0  0  0
    7.3454   -0.5639   -0.5296 F   0  0  0  0  0  0  0  0  0  0  0  0
    6.4468   -1.9803   -1.9107 F   0  0  0  0  0  0  0  0  0  0  0  0
    6.6196   -2.4792    0.1996 F   0  0  0  0  0  0  0  0  0  0  0  0
    4.8267    0.1509    0.5753 C   0  0  0  0  0  0  0  0  0  0  0  0
    3.5668    0.6869    0.8301 C   0  0  0  0  0  0  0  0  0  0  0  0
    3.4514    1.6566    1.7522 F   0  0  0  0  0  0  0  0  0  0  0  0
   -0.9919    1.4569    0.5113 N   0  0  0  0  0  0  0  0  0  0  0  0
   -2.3734    1.3781    0.4246 C   0  0  0  0  0  0  0  0  0  0  0  0
   -3.1435    2.4864    0.7124 C   0  0  0  0  0  0  0  0  0  0  0  0
   -4.4574    2.1603    0.5272 N   0  0  0  0  0  0  0  0  0  0  0  0
   -4.5719    0.8384    0.1699 C   0  0  0  0  0  0  0  0  0  0  0  0
   -5.7268    0.0881   -0.0896 C   0  0  0  0  0  0  0  0  0  0  0  0
   -5.5676   -1.2608   -0.4097 C   0  0  0  0  0  0  0  0  0  0  0  0
   -4.3001   -1.8283   -0.4574 C   0  0  0  0  0  0  0  0  0  0  0  0
   -4.1386   -3.5030   -0.8323 Cl  0  0  0  0  0  0  0  0  0  0  0  0
   -3.1555   -1.0667   -0.1984 C   0  0  0  0  0  0  0  0  0  0  0  0
   -3.2761    0.3082    0.1073 C   0  0  0  0  0  0  0  0  0  0  0  0
    1.2638    1.5636    1.2137 H   0  0  0  0  0  0  0  0  0  0  0  0
    1.7214   -1.1468   -1.3611 H   0  0  0  0  0  0  0  0  0  0  0  0
    3.9172   -2.0993   -1.8134 H   0  0  0  0  0  0  0  0  0  0  0  0
    5.6835    0.5258    1.1300 H   0  0  0  0  0  0  0  0  0  0  0  0
   -0.6309    2.3303    0.8615 H   0  0  0  0  0  0  0  0  0  0  0  0
   -2.8722    3.4903    1.0089 H   0  0  0  0  0  0  0  0  0  0  0  0
   -5.2393    2.7891    0.6506 H   0  0  0  0  0  0  0  0  0  0  0  0
   -6.7161    0.5319   -0.0391 H   0  0  0  0  0  0  0  0  0  0  0  0
   -6.4458   -1.8681   -0.6139 H   0  0  0  0  0  0  0  0  0  0  0  0
   -2.1838   -1.5466   -0.2272 H   0  0  0  0  0  0  0  0  0  0  0  0
  1  2  2  0
  2  3  1  0
  3  4  1  0
  4  5  2  0
  5  6  1  0
  6  7  2  0
  7  8  1  0
  8  9  1  0
  8 10  1  0
  8 11  1  0
  7 12  1  0
 12 13  2  0
 13 14  1  0
  2 15  1  0
 15 16  1  0
 16 17  2  0
 17 18  1  0
 18 19  1  0
 19 20  2  0
 20 21  1  0
 21 22  2  0
 22 23  1  0
 22 24  1  0
 24 25  2  0
 13  4  1  0
 25 16  1  0
 25 19  1  0
  3 26  1  0
  5 27  1  0
  6 28  1  0
 12 29  1  0
 15 30  1  0
 17 31  1  0
 18 32  1  0
 20 33  1  0
 21 34  1  0
 24 35  1  0
M  END
>  <mol_id>  (1) 
76654

>  <source_index>  (1) 
6

>  <layer>  (1) 
L1

>  <uniprot>  (1) 
Q86WV6

>  <paff>  (1) 
6.5606999999999998

>  <smiles>  (1) 
O=C(Nc1ccc(C(F)(F)F)cc1F)Nc1c[nH]c2ccc(Cl)cc12

$$$$
