L1:Q86WV6:76654


 28 30  0  0  0  0  0  0  0  0999 V2000
    5.5148   19.9009   39.7505 O   0  0  0  0  0  0  0  0  0  0  0  0
    5.6757   21.0050   39.2508 C   0  0  0  0  0  0  0  0  0  0  0  0
    4.7235   21.6680   38.4923 N   0  0  0  0  0  0  0  0  0  0  0  0
    6.8126   21.7820   39.3775 N   0  0  0  0  0  0  0  0  0  0  0  0
    5.0150   22.5177   38.0282 H   0  0  0  0  0  0  0  0  0  0  0  0
    6.7091   22.7684   39.1982 H   0  0  0  0  0  0  0  0  0  0  0  0
    8.0415   21.3982   39.8919 C   0  0  0  0  0  0  0  0  0  0  0  0
    8.1458   21.0299   41.2177 C   0  0  0  0  0  0  0  0  0  0  0  0
    9.4409   20.6724   41.4668 N   0  0  0  0  0  0  0  0  0  0  0  0
   10.2061   20.8466   40.3389 C   0  0  0  0  0  0  0  0  0  0  0  0
   11.5786   20.6287   40.1576 C   0  0  0  0  0  0  0  0  0  0  0  0
   12.1223   20.9135   38.9043 C   0  0  0  0  0  0  0  0  0  0  0  0
   11.3179   21.4040   37.8829 C   0  0  0  0  0  0  0  0  0  0  0  0
   12.0243   21.7687   36.3534 Cl  0  0  0  0  0  0  0  0  0  0  0  0
    9.9486   21.6145   38.0772 C   0  0  0  0  0  0  0  0  0  0  0  0
    9.3583   21.3162   39.3266 C   0  0  0  0  0  0  0  0  0  0  0  0
    9.7967   20.3436   42.3541 H   0  0  0  0  0  0  0  0  0  0  0  0
    3.4026   21.2597   38.2071 C   0  0  0  0  0  0  0  0  0  0  0  0
    2.4182   21.0297   39.1673 C   0  0  0  0  0  0  0  0  0  0  0  0
    1.1316   20.6284   38.7798 C   0  0  0  0  0  0  0  0  0  0  0  0
    0.8036   20.4590   37.4254 C   0  0  0  0  0  0  0  0  0  0  0  0
    1.7946   20.6860   36.4622 C   0  0  0  0  0  0  0  0  0  0  0  0
    3.0691   21.0838   36.8585 C   0  0  0  0  0  0  0  0  0  0  0  0
    4.0003   21.3023   35.9156 F   0  0  0  0  0  0  0  0  0  0  0  0
   -0.5747   20.0051   37.0130 C   0  0  0  0  0  0  0  0  0  0  0  0
   -0.5465   19.0062   36.0872 F   0  0  0  0  0  0  0  0  0  0  0  0
   -1.3266   20.9987   36.4643 F   0  0  0  0  0  0  0  0  0  0  0  0
   -1.2944   19.5229   38.0622 F   0  0  0  0  0  0  0  0  0  0  0  0
  1  2  2  0  0  0
  2  3  1  0  0  0
  3 18  1  0  0  0
 18 19  2  0  0  0
 19 20  1  0  0  0
 20 21  2  0  0  0
 21 25  1  0  0  0
 25 26  1  0  0  0
 25 27  1  0  0  0
 25 28  1  0  0  0
 21 22  1  0  0  0
 22 23  2  0  0  0
 23 24  1  0  0  0
  2  4  1  0  0  0
  4  7  1  0  0  0
  7  8  2  0  0  0
  8  9  1  0  0  0
  9 10  1  0  0  0
 10 11  2  0  0  0
 11 12  1  0  0  0
 12 13  2  0  0  0
 13 14  1  0  0  0
 13 15  1  0  0  0
 15 16  2  0  0  0
 23 18  1  0  0  0
 16  7  1  0  0  0
 16 10  1  0  0  0
  3  5  1  0  0  0
  4  6  1  0  0  0
  9 17  1  0  0  0
M  END
> <minimizedAffinity>
-7.45618

$$$$
