L3:Q00959:2221
     RDKit          3D

 40 41  0  0  0  0  0  0  0  0999 V2000
   14.5340   18.8042   32.0482 C   0  0  0  0  0  0  0  0  0  0  0  0
   15.6593   19.0864   31.3020 C   0  0  0  0  0  0  0  0  0  0  0  0
   16.0434   20.4542   31.4064 C   0  0  0  0  0  0  0  0  0  0  0  0
   15.1990   21.1841   32.2232 C   0  0  0  0  0  0  0  0  0  0  0  0
   13.9447   20.1970   32.8481 S   0  0  0  0  0  0  0  0  0  0  0  0
   14.3191   16.4884   33.0182 C   0  0  0  0  0  0  0  0  0  0  0  0
   13.5864   15.2890   33.1006 C   0  0  0  0  0  0  0  0  0  0  0  0
   12.4047   15.1160   32.3797 C   0  0  0  0  0  0  0  0  0  0  0  0
   11.9320   16.1393   31.5662 C   0  0  0  0  0  0  0  0  0  0  0  0
   12.6412   17.3368   31.4759 C   0  0  0  0  0  0  0  0  0  0  0  0
   13.8320   17.5284   32.1986 C   0  0  0  0  0  0  0  0  0  0  0  0
   16.7705   15.9409   33.1810 C   0  0  0  0  0  0  0  0  0  0  0  0
   15.5784   16.6119   33.8476 C   0  0  0  0  0  0  0  0  0  0  0  0
   15.3109   22.6008   32.5421 C   0  0  0  0  0  0  0  0  0  0  0  0
   14.8769   23.4869   31.8080 O   0  0  0  0  0  0  0  0  0  0  0  0
   15.9572   22.9088   33.7198 N   0  0  0  0  0  0  0  0  0  0  0  0
   16.3503   22.1525   34.2696 H   0  0  0  0  0  0  0  0  0  0  0  0
   16.1489   24.2750   34.1732 C   0  0  0  0  0  0  0  0  0  0  0  0
   16.4911   24.3768   35.6695 C   0  0  1  0  0  0  0  0  0  0  0  0
   16.5118   23.0270   36.2889 N   0  0  0  0  0  0  0  0  0  0  0  0
   15.5492   22.7007   36.3791 H   0  0  0  0  0  0  0  0  0  0  0  0
   16.8634   23.1377   37.2439 H   0  0  0  0  0  0  0  0  0  0  0  0
   17.8556   25.0495   35.8588 C   0  0  0  0  0  0  0  0  0  0  0  0
   18.1195   26.2380   35.7645 O   0  0  0  0  0  0  0  0  0  0  0  0
   18.8227   24.1699   36.2190 O   0  0  0  0  0  0  0  0  0  0  0  0
   19.6253   24.7266   36.2974 H   0  0  0  0  0  0  0  0  0  0  0  0
   16.1641   18.3880   30.7342 H   0  0  0  0  0  0  0  0  0  0  0  0
   16.8627   20.8567   30.9249 H   0  0  0  0  0  0  0  0  0  0  0  0
   13.9291   14.5253   33.7042 H   0  0  0  0  0  0  0  0  0  0  0  0
   11.8819   14.2291   32.4503 H   0  0  0  0  0  0  0  0  0  0  0  0
   11.0589   16.0133   31.0307 H   0  0  0  0  0  0  0  0  0  0  0  0
   12.2868   18.0932   30.8699 H   0  0  0  0  0  0  0  0  0  0  0  0
   17.6355   16.0529   33.8008 H   0  0  0  0  0  0  0  0  0  0  0  0
   16.9513   16.3976   32.2304 H   0  0  0  0  0  0  0  0  0  0  0  0
   16.5629   14.9003   33.0430 H   0  0  0  0  0  0  0  0  0  0  0  0
   15.7997   17.6495   33.9866 H   0  0  0  0  0  0  0  0  0  0  0  0
   15.4059   16.1231   34.7837 H   0  0  0  0  0  0  0  0  0  0  0  0
   15.2474   24.8224   33.9929 H   0  0  0  0  0  0  0  0  0  0  0  0
   16.9792   24.6758   33.6301 H   0  0  0  0  0  0  0  0  0  0  0  0
   15.7384   24.9689   36.1468 H   0  0  0  0  0  0  0  0  0  0  0  0
  1  2  2  0
  2  3  1  0
  2 27  1  0
  3  4  2  0
  3 28  1  0
  4 14  1  0
  4  5  1  0
  5  1  1  0
  6  7  2  0
  7  8  1  0
  7 29  1  0
  8  9  2  0
  8 30  1  0
  9 10  1  0
  9 31  1  0
 10 11  2  0
 10 32  1  0
 11  1  1  0
 11  6  1  0
 12 13  1  0
 12 33  1  0
 12 34  1  0
 12 35  1  0
 13  6  1  0
 13 36  1  0
 13 37  1  0
 14 15  2  0
 14 16  1  0
 16 18  1  0
 16 17  1  0
 18 19  1  0
 18 38  1  0
 18 39  1  0
 19 20  1  0
 19 23  1  0
 19 40  1  1
 20 21  1  0
 20 22  1  0
 23 24  2  0
 23 25  1  0
 25 26  1  0
M  END
>  <minimizedAffinity>  (1) 
-5.95092

>  <mol_id>  (1) 
2221

>  <source_index>  (1) 
0

>  <layer>  (1) 
L3

>  <uniprot>  (1) 
Q00959

>  <paff>  (1) 
7.2441000000000004

>  <smiles>  (1) 
CCc1ccccc1-c1ccc(C(=O)NC[C@@H](N)C(=O)O)s1

$$$$
L3:Q00959:24323
     RDKit          3D

 10  9  0  0  0  0  0  0  0  0999 V2000
   17.4480   24.9413   38.3131 N   0  0  0  0  0  0  0  0  0  0  0  0
   16.2429   24.7976   37.4787 C   0  0  0  0  0  0  0  0  0  0  0  0
   18.0555   24.1378   38.1663 H   0  0  0  0  0  0  0  0  0  0  0  0
   17.1540   24.9138   39.2926 H   0  0  0  0  0  0  0  0  0  0  0  0
   15.1258   25.7186   37.9490 C   0  0  0  0  0  0  0  0  0  0  0  0
   14.8500   26.8137   37.4851 O   0  0  0  0  0  0  0  0  0  0  0  0
   14.3569   25.1772   38.9219 O   0  0  0  0  0  0  0  0  0  0  0  0
   13.7022   25.8803   39.1143 H   0  0  0  0  0  0  0  0  0  0  0  0
   15.9030   23.7843   37.5303 H   0  0  0  0  0  0  0  0  0  0  0  0
   16.4966   25.0635   36.4738 H   0  0  0  0  0  0  0  0  0  0  0  0
  1  2  1  0
  1  3  1  0
  1  4  1  0
  2  5  1  0
  2  9  1  0
  2 10  1  0
  5  6  2  0
  5  7  1  0
  7  8  1  0
M  END
>  <minimizedAffinity>  (2) 
-4.69288

>  <mol_id>  (2) 
24323

>  <source_index>  (2) 
1

>  <layer>  (2) 
L3

>  <uniprot>  (2) 
Q00959

>  <paff>  (2) 
6

>  <smiles>  (2) 
NCC(=O)O

$$$$
L3:Q00959:43699
     RDKit          3D

 34 35  0  0  0  0  0  0  0  0999 V2000
   15.9264   22.8815   33.6498 N   0  0  0  0  0  0  0  0  0  0  0  0
   15.2269   22.4978   32.5220 C   0  0  0  0  0  0  0  0  0  0  0  0
   14.6330   23.3330   31.8425 O   0  0  0  0  0  0  0  0  0  0  0  0
   16.4894   22.2154   34.1581 H   0  0  0  0  0  0  0  0  0  0  0  0
   15.2744   21.0733   32.2162 C   0  0  0  0  0  0  0  0  0  0  0  0
   16.1503   20.3534   31.4212 C   0  0  0  0  0  0  0  0  0  0  0  0
   15.8314   18.9702   31.3940 C   0  0  0  0  0  0  0  0  0  0  0  0
   16.8747   17.7552   30.3879 Br  0  0  0  0  0  0  0  0  0  0  0  0
   14.7313   18.6461   32.1526 C   0  0  0  0  0  0  0  0  0  0  0  0
   14.0955   20.0383   32.9220 S   0  0  0  0  0  0  0  0  0  0  0  0
   14.0859   17.3518   32.3756 C   0  0  0  0  0  0  0  0  0  0  0  0
   14.6277   16.4867   33.3411 C   0  0  0  0  0  0  0  0  0  0  0  0
   14.0557   15.2355   33.5808 C   0  0  0  0  0  0  0  0  0  0  0  0
   12.9365   14.8315   32.8575 C   0  0  0  0  0  0  0  0  0  0  0  0
   12.3870   15.6774   31.8940 C   0  0  0  0  0  0  0  0  0  0  0  0
   12.9575   16.9321   31.6513 C   0  0  0  0  0  0  0  0  0  0  0  0
   12.1394   18.0206   30.3228 Br  0  0  0  0  0  0  0  0  0  0  0  0
   15.9936   24.2705   34.0897 C   0  0  0  0  0  0  0  0  0  0  0  0
   18.1545   25.4181   33.5807 N   0  0  0  0  0  0  0  0  0  0  0  0
   17.3810   24.6745   34.6184 C   0  0  1  0  0  0  0  0  0  0  0  0
   19.0526   25.6776   33.9975 H   0  0  0  0  0  0  0  0  0  0  0  0
   17.6845   26.3204   33.4590 H   0  0  0  0  0  0  0  0  0  0  0  0
   17.2605   25.5148   35.8906 C   0  0  0  0  0  0  0  0  0  0  0  0
   16.2315   25.7239   36.5172 O   0  0  0  0  0  0  0  0  0  0  0  0
   18.4247   26.0776   36.2673 O   0  0  0  0  0  0  0  0  0  0  0  0
   18.2210   26.4814   37.1379 H   0  0  0  0  0  0  0  0  0  0  0  0
   16.9418   20.7730   30.9088 H   0  0  0  0  0  0  0  0  0  0  0  0
   15.4581   16.7794   33.8794 H   0  0  0  0  0  0  0  0  0  0  0  0
   14.4625   14.6103   34.2940 H   0  0  0  0  0  0  0  0  0  0  0  0
   12.5138   13.9068   33.0342 H   0  0  0  0  0  0  0  0  0  0  0  0
   11.5574   15.3771   31.3586 H   0  0  0  0  0  0  0  0  0  0  0  0
   15.7489   24.9015   33.2609 H   0  0  0  0  0  0  0  0  0  0  0  0
   15.3016   24.3809   34.8983 H   0  0  0  0  0  0  0  0  0  0  0  0
   17.9104   23.7754   34.8555 H   0  0  0  0  0  0  0  0  0  0  0  0
  1  2  1  0
  1  4  1  0
  2  3  2  0
  2  5  1  0
  5  6  2  0
  6  7  1  0
  6 27  1  0
  7  8  1  0
  7  9  2  0
  9 11  1  0
  9 10  1  0
 10  5  1  0
 11 12  2  0
 12 13  1  0
 12 28  1  0
 13 14  2  0
 13 29  1  0
 14 15  1  0
 14 30  1  0
 15 16  2  0
 15 31  1  0
 16 17  1  0
 16 11  1  0
 18  1  1  0
 18 32  1  0
 18 33  1  0
 19 20  1  0
 19 21  1  0
 19 22  1  0
 20 18  1  0
 20 23  1  0
 20 34  1  1
 23 24  2  0
 23 25  1  0
 25 26  1  0
M  END
>  <minimizedAffinity>  (3) 
-6.03200

>  <mol_id>  (3) 
43699

>  <source_index>  (3) 
2

>  <layer>  (3) 
L3

>  <uniprot>  (3) 
Q00959

>  <paff>  (3) 
7.7446999999999999

>  <smiles>  (3) 
N[C@H](CNC(=O)c1cc(Br)c(-c2ccccc2Br)s1)C(=O)O

$$$$
L3:Q00959:68311
     RDKit          3D

 40 42  0  0  0  0  0  0  0  0999 V2000
   18.8929   34.3264   27.9968 C   0  0  0  0  0  0  0  0  0  0  0  0
   19.7078   34.7783   29.0215 C   0  0  0  0  0  0  0  0  0  0  0  0
   18.9694   35.1748   30.1765 C   0  0  0  0  0  0  0  0  0  0  0  0
   17.6107   35.0143   30.0074 C   0  0  0  0  0  0  0  0  0  0  0  0
   17.2396   34.3804   28.4647 S   0  0  0  0  0  0  0  0  0  0  0  0
   16.5301   35.3040   30.9555 C   0  0  0  0  0  0  0  0  0  0  0  0
   16.2718   36.6501   31.2645 C   0  0  0  0  0  0  0  0  0  0  0  0
   15.2440   36.9927   32.1362 C   0  0  0  0  0  0  0  0  0  0  0  0
   14.4592   35.9938   32.7064 C   0  0  0  0  0  0  0  0  0  0  0  0
   14.6904   34.6399   32.4182 C   0  0  0  0  0  0  0  0  0  0  0  0
   13.8875   33.6477   33.0056 C   0  0  0  0  0  0  0  0  0  0  0  0
   14.1023   32.2968   32.7375 C   0  0  0  0  0  0  0  0  0  0  0  0
   15.1256   31.9185   31.8790 C   0  0  0  0  0  0  0  0  0  0  0  0
   15.9321   32.8925   31.2864 C   0  0  0  0  0  0  0  0  0  0  0  0
   15.7371   34.2730   31.5342 C   0  0  0  0  0  0  0  0  0  0  0  0
   18.1623   33.3441   25.9337 N   0  0  0  0  0  0  0  0  0  0  0  0
   19.2290   33.8343   26.6652 C   0  0  0  0  0  0  0  0  0  0  0  0
   20.3642   33.8264   26.1931 O   0  0  0  0  0  0  0  0  0  0  0  0
   17.2553   33.2494   26.3735 H   0  0  0  0  0  0  0  0  0  0  0  0
   18.3436   32.7852   24.6036 C   0  0  0  0  0  0  0  0  0  0  0  0
   18.0847   30.2898   24.6031 N   0  0  0  0  0  0  0  0  0  0  0  0
   17.4239   31.5852   24.3259 C   0  0  1  0  0  0  0  0  0  0  0  0
   18.1576   30.1640   25.6158 H   0  0  0  0  0  0  0  0  0  0  0  0
   19.0369   30.2970   24.2403 H   0  0  0  0  0  0  0  0  0  0  0  0
   16.1700   31.7143   25.1939 C   0  0  0  0  0  0  0  0  0  0  0  0
   15.2198   32.4594   25.0107 O   0  0  0  0  0  0  0  0  0  0  0  0
   16.1641   30.8538   26.2378 O   0  0  0  0  0  0  0  0  0  0  0  0
   15.3309   31.0834   26.7060 H   0  0  0  0  0  0  0  0  0  0  0  0
   20.7368   34.8234   28.9568 H   0  0  0  0  0  0  0  0  0  0  0  0
   19.4027   35.5397   31.0391 H   0  0  0  0  0  0  0  0  0  0  0  0
   16.8506   37.3918   30.8403 H   0  0  0  0  0  0  0  0  0  0  0  0
   15.0635   37.9839   32.3598 H   0  0  0  0  0  0  0  0  0  0  0  0
   13.6959   36.2530   33.3508 H   0  0  0  0  0  0  0  0  0  0  0  0
   13.1265   33.9235   33.6458 H   0  0  0  0  0  0  0  0  0  0  0  0
   13.5027   31.5803   33.1757 H   0  0  0  0  0  0  0  0  0  0  0  0
   15.2900   30.9195   31.6791 H   0  0  0  0  0  0  0  0  0  0  0  0
   16.6903   32.5984   30.6511 H   0  0  0  0  0  0  0  0  0  0  0  0
   18.1364   33.5478   23.8822 H   0  0  0  0  0  0  0  0  0  0  0  0
   19.3531   32.4368   24.5377 H   0  0  0  0  0  0  0  0  0  0  0  0
   17.1732   31.5964   23.2857 H   0  0  0  0  0  0  0  0  0  0  0  0
  1  2  2  0
  2  3  1  0
  2 29  1  0
  3  4  2  0
  3 30  1  0
  4  6  1  0
  4  5  1  0
  5  1  1  0
  6  7  2  0
  7  8  1  0
  7 31  1  0
  8  9  2  0
  8 32  1  0
  9 10  1  0
  9 33  1  0
 10 11  2  0
 11 12  1  0
 11 34  1  0
 12 13  2  0
 12 35  1  0
 13 14  1  0
 13 36  1  0
 14 15  2  0
 14 37  1  0
 15  6  1  0
 15 10  1  0
 16 17  1  0
 16 19  1  0
 17 18  2  0
 17  1  1  0
 20 16  1  0
 20 38  1  0
 20 39  1  0
 21 22  1  0
 21 23  1  0
 21 24  1  0
 22 20  1  0
 22 25  1  0
 22 40  1  6
 25 26  2  0
 25 27  1  0
 27 28  1  0
M  END
>  <minimizedAffinity>  (4) 
-6.06768

>  <mol_id>  (4) 
68311

>  <source_index>  (4) 
3

>  <layer>  (4) 
L3

>  <uniprot>  (4) 
Q00959

>  <paff>  (4) 
6.9913999999999996

>  <smiles>  (4) 
N[C@H](CNC(=O)c1ccc(-c2cccc3ccccc23)s1)C(=O)O

$$$$
L3:Q00959:88721
     RDKit          3D

 46 49  0  0  0  0  0  0  0  0999 V2000
   19.2290   35.2818   43.8643 C   0  0  0  0  0  0  0  0  0  0  0  0
   20.6042   35.4324   43.7488 C   0  0  0  0  0  0  0  0  0  0  0  0
   21.2672   35.2064   42.5834 N   0  0  0  0  0  0  0  0  0  0  0  0
   20.4913   34.8228   41.5437 C   0  0  0  0  0  0  0  0  0  0  0  0
   19.1134   34.6720   41.6606 C   0  0  0  0  0  0  0  0  0  0  0  0
   18.4417   34.8962   42.8188 N   0  0  0  0  0  0  0  0  0  0  0  0
   19.0418   36.3072   45.9899 O   0  0  0  0  0  0  0  0  0  0  0  0
   18.5560   35.5413   45.1650 C   0  0  0  0  0  0  0  0  0  0  0  0
   17.3764   34.8492   45.3387 N   0  0  0  0  0  0  0  0  0  0  0  0
   17.0988   34.2069   44.5999 H   0  0  0  0  0  0  0  0  0  0  0  0
   16.5855   34.9106   46.5362 C   0  0  0  0  0  0  0  0  0  0  0  0
   16.0059   36.2400   46.9862 C   0  0  0  0  0  0  0  0  0  0  0  0
   15.1033   35.2178   46.3744 C   0  0  0  0  0  0  0  0  0  0  0  0
   16.9774   33.8805   47.5928 C   0  0  0  0  0  0  0  0  0  0  0  0
   17.0117   34.2072   48.9523 C   0  0  0  0  0  0  0  0  0  0  0  0
   17.3552   33.3357   49.9360 N   0  0  0  0  0  0  0  0  0  0  0  0
   17.6810   32.0983   49.5117 C   0  0  0  0  0  0  0  0  0  0  0  0
   17.6649   31.7499   48.1740 C   0  0  0  0  0  0  0  0  0  0  0  0
   17.3197   32.6206   47.1970 N   0  0  0  0  0  0  0  0  0  0  0  0
   21.0584   34.5660   40.3167 O   0  0  0  0  0  0  0  0  0  0  0  0
   20.4836   33.4261   39.6552 C   0  0  0  0  0  0  0  0  0  0  0  0
   21.5048   32.2796   39.6184 C   0  0  0  0  0  0  0  0  0  0  0  0
   22.7422   32.7901   39.8958 F   0  0  0  0  0  0  0  0  0  0  0  0
   21.5869   31.8112   38.3368 F   0  0  0  0  0  0  0  0  0  0  0  0
   21.1210   31.1820   40.5920 C   0  0  0  0  0  0  0  0  0  0  0  0
   21.0759   31.4350   41.9726 C   0  0  0  0  0  0  0  0  0  0  0  0
   20.7389   30.4197   42.8700 C   0  0  0  0  0  0  0  0  0  0  0  0
   20.4431   29.1411   42.3982 C   0  0  0  0  0  0  0  0  0  0  0  0
   20.4822   28.8824   41.0300 C   0  0  0  0  0  0  0  0  0  0  0  0
   20.1163   27.3054   40.4479 Cl  0  0  0  0  0  0  0  0  0  0  0  0
   20.8183   29.8917   40.1278 C   0  0  0  0  0  0  0  0  0  0  0  0
   21.1432   35.7268   44.5781 H   0  0  0  0  0  0  0  0  0  0  0  0
   18.5777   34.3764   40.8295 H   0  0  0  0  0  0  0  0  0  0  0  0
   16.2414   37.1340   46.4475 H   0  0  0  0  0  0  0  0  0  0  0  0
   16.0075   36.7896   47.9042 H   0  0  0  0  0  0  0  0  0  0  0  0
   14.6954   35.3813   45.3988 H   0  0  0  0  0  0  0  0  0  0  0  0
   14.1962   34.7363   46.6748 H   0  0  0  0  0  0  0  0  0  0  0  0
   16.7604   35.1703   49.2250 H   0  0  0  0  0  0  0  0  0  0  0  0
   17.9515   31.3872   50.2090 H   0  0  0  0  0  0  0  0  0  0  0  0
   17.9266   30.7872   47.9097 H   0  0  0  0  0  0  0  0  0  0  0  0
   20.2135   33.6940   38.6551 H   0  0  0  0  0  0  0  0  0  0  0  0
   19.6129   33.1081   40.1896 H   0  0  0  0  0  0  0  0  0  0  0  0
   21.2937   32.3795   42.3270 H   0  0  0  0  0  0  0  0  0  0  0  0
   20.7087   30.6156   43.8828 H   0  0  0  0  0  0  0  0  0  0  0  0
   20.1961   28.3892   43.0605 H   0  0  0  0  0  0  0  0  0  0  0  0
   20.8446   29.6896   39.1161 H   0  0  0  0  0  0  0  0  0  0  0  0
  1  2  2  0
  2  3  1  0
  2 32  1  0
  3  4  2  0
  4 20  1  0
  4  5  1  0
  5  6  2  0
  5 33  1  0
  6  1  1  0
  7  8  2  0
  8  9  1  0
  8  1  1  0
  9 11  1  0
  9 10  1  0
 11 14  1  0
 11 12  1  0
 12 13  1  0
 12 34  1  0
 12 35  1  0
 13 11  1  0
 13 36  1  0
 13 37  1  0
 14 15  2  0
 15 16  1  0
 15 38  1  0
 16 17  2  0
 17 18  1  0
 17 39  1  0
 18 19  2  0
 18 40  1  0
 19 14  1  0
 20 21  1  0
 21 22  1  0
 21 41  1  0
 21 42  1  0
 22 23  1  0
 22 24  1  0
 22 25  1  0
 25 26  2  0
 26 27  1  0
 26 43  1  0
 27 28  2  0
 27 44  1  0
 28 29  1  0
 28 45  1  0
 29 30  1  0
 29 31  2  0
 31 25  1  0
 31 46  1  0
M  END
>  <minimizedAffinity>  (5) 
-5.51098

>  <mol_id>  (5) 
88721

>  <source_index>  (5) 
4

>  <layer>  (5) 
L3

>  <uniprot>  (5) 
Q00959

>  <paff>  (5) 
6.7374999999999998

>  <smiles>  (5) 
c1cc(cc(c1)Cl)C(COc2cnc(cn2)C(=O)NC3(CC3)c4cnccn4)(F)F

$$$$
L3:Q00959:89763
     RDKit          3D

 45 47  0  0  0  0  0  0  0  0999 V2000
   17.2726   18.0801   31.2616 C   0  0  0  0  0  0  0  0  0  0  0  0
   16.1189   18.8640   31.8088 C   0  0  0  0  0  0  0  0  0  0  0  0
   16.2453   20.2195   31.8381 N   0  0  0  0  0  0  0  0  0  0  0  0
   15.1724   20.8922   32.3472 C   0  0  0  0  0  0  0  0  0  0  0  0
   14.0324   20.2477   32.7996 C   0  0  0  0  0  0  0  0  0  0  0  0
   13.9017   18.8967   32.7682 N   0  0  0  0  0  0  0  0  0  0  0  0
   14.9635   18.2201   32.2705 C   0  0  0  0  0  0  0  0  0  0  0  0
   15.2650   22.3775   32.4035 C   0  0  0  0  0  0  0  0  0  0  0  0
   14.7530   23.0815   31.5417 O   0  0  0  0  0  0  0  0  0  0  0  0
   15.9564   22.8640   33.4903 N   0  0  0  0  0  0  0  0  0  0  0  0
   16.3079   22.1792   34.1538 H   0  0  0  0  0  0  0  0  0  0  0  0
   16.1157   24.2717   33.7521 C   0  0  0  0  0  0  0  0  0  0  0  0
   16.8183   24.5012   35.0566 C   0  0  0  0  0  0  0  0  0  0  0  0
   16.4527   23.8200   36.2209 C   0  0  0  0  0  0  0  0  0  0  0  0
   17.1254   24.0794   37.4118 C   0  0  0  0  0  0  0  0  0  0  0  0
   18.1415   25.0203   37.4004 C   0  0  0  0  0  0  0  0  0  0  0  0
   18.5167   25.7058   36.3003 N   0  0  0  0  0  0  0  0  0  0  0  0
   17.8450   25.4359   35.1569 C   0  0  0  0  0  0  0  0  0  0  0  0
   14.9132   16.8450   32.1976 O   0  0  0  0  0  0  0  0  0  0  0  0
   14.2311   16.2384   33.3079 C   0  0  0  0  0  0  0  0  0  0  0  0
   14.0136   14.7444   33.0455 C   0  0  0  0  0  0  0  0  0  0  0  0
   13.6786   14.1544   34.2388 F   0  0  0  0  0  0  0  0  0  0  0  0
   15.2229   14.1907   32.7192 F   0  0  0  0  0  0  0  0  0  0  0  0
   12.9722   14.4999   31.9605 C   0  0  0  0  0  0  0  0  0  0  0  0
   11.6731   14.9694   32.1297 C   0  0  0  0  0  0  0  0  0  0  0  0
   10.7428   14.7182   31.1285 C   0  0  0  0  0  0  0  0  0  0  0  0
    9.1299   15.2923   31.2999 Cl  0  0  0  0  0  0  0  0  0  0  0  0
   11.1022   14.0094   29.9923 C   0  0  0  0  0  0  0  0  0  0  0  0
   12.4068   13.5702   29.9017 C   0  0  0  0  0  0  0  0  0  0  0  0
   13.3404   13.7978   30.8515 N   0  0  0  0  0  0  0  0  0  0  0  0
   18.0512   18.7514   30.9648 H   0  0  0  0  0  0  0  0  0  0  0  0
   16.9485   17.5129   30.4142 H   0  0  0  0  0  0  0  0  0  0  0  0
   17.6421   17.4162   32.0150 H   0  0  0  0  0  0  0  0  0  0  0  0
   13.2553   20.8145   33.1736 H   0  0  0  0  0  0  0  0  0  0  0  0
   15.1504   24.7318   33.7892 H   0  0  0  0  0  0  0  0  0  0  0  0
   16.7056   24.6989   32.9682 H   0  0  0  0  0  0  0  0  0  0  0  0
   15.6876   23.1279   36.1979 H   0  0  0  0  0  0  0  0  0  0  0  0
   16.8733   23.5832   38.2809 H   0  0  0  0  0  0  0  0  0  0  0  0
   18.6404   25.2080   38.2841 H   0  0  0  0  0  0  0  0  0  0  0  0
   18.1106   25.9557   34.3058 H   0  0  0  0  0  0  0  0  0  0  0  0
   13.2826   16.7150   33.4427 H   0  0  0  0  0  0  0  0  0  0  0  0
   14.8276   16.3542   34.1886 H   0  0  0  0  0  0  0  0  0  0  0  0
   11.4069   15.4919   32.9789 H   0  0  0  0  0  0  0  0  0  0  0  0
   10.4194   13.8176   29.2426 H   0  0  0  0  0  0  0  0  0  0  0  0
   12.6850   13.0385   29.0621 H   0  0  0  0  0  0  0  0  0  0  0  0
  1  2  1  0
  1 31  1  0
  1 32  1  0
  1 33  1  0
  2  3  2  0
  3  4  1  0
  4  8  1  0
  4  5  2  0
  5  6  1  0
  5 34  1  0
  6  7  2  0
  7 19  1  0
  7  2  1  0
  8  9  2  0
  8 10  1  0
 10 12  1  0
 10 11  1  0
 12 13  1  0
 12 35  1  0
 12 36  1  0
 13 14  2  0
 14 15  1  0
 14 37  1  0
 15 16  2  0
 15 38  1  0
 16 17  1  0
 16 39  1  0
 17 18  2  0
 18 13  1  0
 18 40  1  0
 19 20  1  0
 20 21  1  0
 20 41  1  0
 20 42  1  0
 21 22  1  0
 21 23  1  0
 21 24  1  0
 24 25  2  0
 25 26  1  0
 25 43  1  0
 26 27  1  0
 26 28  2  0
 28 29  1  0
 28 44  1  0
 29 30  2  0
 29 45  1  0
 30 24  1  0
M  END
>  <minimizedAffinity>  (6) 
-6.39652

>  <mol_id>  (6) 
89763

>  <source_index>  (6) 
5

>  <layer>  (6) 
L3

>  <uniprot>  (6) 
Q00959

>  <paff>  (6) 
7.3564999999999996

>  <smiles>  (6) 
Cc1nc(C(=O)NCc2cccnc2)cnc1OCC(F)(F)c1cc(Cl)ccn1

$$$$
L3:Q00959:103070
     RDKit          3D

 37 38  0  0  0  0  0  0  0  0999 V2000
   15.2332   21.1918   32.2786 C   0  0  0  0  0  0  0  0  0  0  0  0
   16.0385   20.5143   31.3815 C   0  0  0  0  0  0  0  0  0  0  0  0
   15.7292   19.1256   31.3043 C   0  0  0  0  0  0  0  0  0  0  0  0
   14.6942   18.7767   32.1463 C   0  0  0  0  0  0  0  0  0  0  0  0
   14.1040   20.1307   33.0111 S   0  0  0  0  0  0  0  0  0  0  0  0
   14.0876   17.4618   32.3609 C   0  0  0  0  0  0  0  0  0  0  0  0
   14.6755   16.5986   33.3024 C   0  0  0  0  0  0  0  0  0  0  0  0
   14.1330   15.3391   33.5566 C   0  0  0  0  0  0  0  0  0  0  0  0
   12.9934   14.9258   32.8762 C   0  0  0  0  0  0  0  0  0  0  0  0
   12.3965   15.7719   31.9414 C   0  0  0  0  0  0  0  0  0  0  0  0
   12.9321   17.0468   31.6688 C   0  0  0  0  0  0  0  0  0  0  0  0
   12.2542   17.9333   30.6513 C   0  0  0  0  0  0  0  0  0  0  0  0
   13.0969   18.3936   29.6860 F   0  0  0  0  0  0  0  0  0  0  0  0
   11.6726   19.0309   31.2107 F   0  0  0  0  0  0  0  0  0  0  0  0
   11.2491   17.3008   29.9763 F   0  0  0  0  0  0  0  0  0  0  0  0
   15.9948   22.9492   33.7323 N   0  0  0  0  0  0  0  0  0  0  0  0
   15.2919   22.6124   32.5958 C   0  0  0  0  0  0  0  0  0  0  0  0
   14.7636   23.4744   31.8964 O   0  0  0  0  0  0  0  0  0  0  0  0
   16.4474   22.2122   34.2596 H   0  0  0  0  0  0  0  0  0  0  0  0
   16.1724   24.3246   34.1773 C   0  0  0  0  0  0  0  0  0  0  0  0
   16.5370   23.1296   36.3422 N   0  0  0  0  0  0  0  0  0  0  0  0
   16.6542   24.4372   35.6344 C   0  0  1  0  0  0  0  0  0  0  0  0
   17.1801   22.4839   35.8748 H   0  0  0  0  0  0  0  0  0  0  0  0
   16.9500   23.2449   37.2714 H   0  0  0  0  0  0  0  0  0  0  0  0
   18.0950   24.9467   35.6969 C   0  0  0  0  0  0  0  0  0  0  0  0
   19.0409   24.3695   36.2140 O   0  0  0  0  0  0  0  0  0  0  0  0
   18.2487   26.1701   35.1538 O   0  0  0  0  0  0  0  0  0  0  0  0
   19.2184   26.3159   35.1738 H   0  0  0  0  0  0  0  0  0  0  0  0
   16.7831   20.9658   30.8277 H   0  0  0  0  0  0  0  0  0  0  0  0
   16.2221   18.4587   30.6900 H   0  0  0  0  0  0  0  0  0  0  0  0
   15.5201   16.9012   33.8124 H   0  0  0  0  0  0  0  0  0  0  0  0
   14.5768   14.7151   34.2485 H   0  0  0  0  0  0  0  0  0  0  0  0
   12.5896   13.9945   33.0623 H   0  0  0  0  0  0  0  0  0  0  0  0
   11.5494   15.4594   31.4416 H   0  0  0  0  0  0  0  0  0  0  0  0
   16.8946   24.7957   33.5437 H   0  0  0  0  0  0  0  0  0  0  0  0
   15.2157   24.8006   34.1229 H   0  0  0  0  0  0  0  0  0  0  0  0
   16.0227   25.1450   36.1295 H   0  0  0  0  0  0  0  0  0  0  0  0
  1  2  2  0
  2  3  1  0
  2 29  1  0
  3  4  2  0
  3 30  1  0
  4  6  1  0
  4  5  1  0
  5  1  1  0
  6  7  2  0
  7  8  1  0
  7 31  1  0
  8  9  2  0
  8 32  1  0
  9 10  1  0
  9 33  1  0
 10 11  2  0
 10 34  1  0
 11 12  1  0
 11  6  1  0
 12 13  1  0
 12 14  1  0
 12 15  1  0
 16 17  1  0
 16 19  1  0
 17 18  2  0
 17  1  1  0
 20 16  1  0
 20 35  1  0
 20 36  1  0
 21 22  1  0
 21 23  1  0
 21 24  1  0
 22 20  1  0
 22 25  1  0
 22 37  1  1
 25 26  2  0
 25 27  1  0
 27 28  1  0
M  END
>  <minimizedAffinity>  (7) 
-6.23620

>  <mol_id>  (7) 
103070

>  <source_index>  (7) 
6

>  <layer>  (7) 
L3

>  <uniprot>  (7) 
Q00959

>  <paff>  (7) 
6.8239000000000001

>  <smiles>  (7) 
N[C@H](CNC(=O)c1ccc(-c2ccccc2C(F)(F)F)s1)C(=O)O

$$$$
L3:Q00959:132547
     RDKit          3D

 38 39  0  0  0  0  0  0  0  0999 V2000
   16.6453   34.0486   30.4260 C   0  0  0  0  0  0  0  0  0  0  0  0
   17.9029   34.5869   30.6059 C   0  0  0  0  0  0  0  0  0  0  0  0
   18.6237   34.6899   29.3813 C   0  0  0  0  0  0  0  0  0  0  0  0
   17.9042   34.2196   28.2982 C   0  0  0  0  0  0  0  0  0  0  0  0
   16.3605   33.6544   28.7849 S   0  0  0  0  0  0  0  0  0  0  0  0
   14.8630   34.8039   32.0325 C   0  0  0  0  0  0  0  0  0  0  0  0
   13.8910   34.4787   32.9899 C   0  0  0  0  0  0  0  0  0  0  0  0
   13.6665   33.1479   33.3556 C   0  0  0  0  0  0  0  0  0  0  0  0
   14.4126   32.1307   32.7705 C   0  0  0  0  0  0  0  0  0  0  0  0
   15.3769   32.4477   31.8191 C   0  0  0  0  0  0  0  0  0  0  0  0
   16.0808   31.4433   31.2731 F   0  0  0  0  0  0  0  0  0  0  0  0
   15.6143   33.7731   31.4299 C   0  0  0  0  0  0  0  0  0  0  0  0
   15.7312   36.9630   32.5901 C   0  0  0  0  0  0  0  0  0  0  0  0
   15.1530   36.0850   31.6340 O   0  0  0  0  0  0  0  0  0  0  0  0
   18.3470   34.1830   26.9114 C   0  0  0  0  0  0  0  0  0  0  0  0
   19.0688   35.0458   26.4151 O   0  0  0  0  0  0  0  0  0  0  0  0
   17.9058   33.1101   26.1630 N   0  0  0  0  0  0  0  0  0  0  0  0
   17.3157   32.4246   26.6203 H   0  0  0  0  0  0  0  0  0  0  0  0
   18.2625   32.9415   24.7674 C   0  0  0  0  0  0  0  0  0  0  0  0
   17.6133   31.7108   24.1051 C   0  0  1  0  0  0  0  0  0  0  0  0
   18.5229   30.5385   24.1044 N   0  0  0  0  0  0  0  0  0  0  0  0
   19.4072   30.8025   23.6716 H   0  0  0  0  0  0  0  0  0  0  0  0
   18.7300   30.2790   25.0704 H   0  0  0  0  0  0  0  0  0  0  0  0
   16.3539   31.3520   24.8908 C   0  0  0  0  0  0  0  0  0  0  0  0
   15.2626   31.8956   24.7910 O   0  0  0  0  0  0  0  0  0  0  0  0
   16.5236   30.3175   25.7380 O   0  0  0  0  0  0  0  0  0  0  0  0
   15.6606   30.2375   26.1942 H   0  0  0  0  0  0  0  0  0  0  0  0
   18.2779   34.8808   31.5213 H   0  0  0  0  0  0  0  0  0  0  0  0
   19.5790   35.0738   29.3103 H   0  0  0  0  0  0  0  0  0  0  0  0
   13.3356   35.2295   33.4291 H   0  0  0  0  0  0  0  0  0  0  0  0
   12.9471   32.9206   34.0597 H   0  0  0  0  0  0  0  0  0  0  0  0
   14.2521   31.1476   33.0401 H   0  0  0  0  0  0  0  0  0  0  0  0
   15.9004   37.9189   32.1401 H   0  0  0  0  0  0  0  0  0  0  0  0
   16.6621   36.5584   32.9288 H   0  0  0  0  0  0  0  0  0  0  0  0
   15.0665   37.0728   33.4214 H   0  0  0  0  0  0  0  0  0  0  0  0
   19.3255   32.8394   24.7006 H   0  0  0  0  0  0  0  0  0  0  0  0
   17.9010   33.8034   24.2465 H   0  0  0  0  0  0  0  0  0  0  0  0
   17.3874   31.9548   23.0881 H   0  0  0  0  0  0  0  0  0  0  0  0
  1  2  2  0
  2  3  1  0
  2 28  1  0
  3  4  2  0
  3 29  1  0
  4 15  1  0
  4  5  1  0
  5  1  1  0
  6  7  2  0
  7  8  1  0
  7 30  1  0
  8  9  2  0
  8 31  1  0
  9 10  1  0
  9 32  1  0
 10 11  1  0
 10 12  2  0
 12  1  1  0
 12  6  1  0
 13 14  1  0
 13 33  1  0
 13 34  1  0
 13 35  1  0
 14  6  1  0
 15 16  2  0
 15 17  1  0
 17 19  1  0
 17 18  1  0
 19 20  1  0
 19 36  1  0
 19 37  1  0
 20 21  1  0
 20 24  1  0
 20 38  1  6
 21 22  1  0
 21 23  1  0
 24 25  2  0
 24 26  1  0
 26 27  1  0
M  END
>  <minimizedAffinity>  (8) 
-5.58449

>  <mol_id>  (8) 
132547

>  <source_index>  (8) 
7

>  <layer>  (8) 
L3

>  <uniprot>  (8) 
Q00959

>  <paff>  (8) 
6.5376000000000003

>  <smiles>  (8) 
COc1cccc(F)c1-c1ccc(C(=O)NC[C@@H](N)C(=O)O)s1

$$$$
L3:Q00959:132866
     RDKit          3D

 40 41  0  0  0  0  0  0  0  0999 V2000
   15.1987   21.8114   32.1237 C   0  0  0  0  0  0  0  0  0  0  0  0
   14.8103   22.9666   31.4782 C   0  0  0  0  0  0  0  0  0  0  0  0
   15.2536   24.0456   32.2803 C   0  0  0  0  0  0  0  0  0  0  0  0
   15.8837   23.4922   33.3777 C   0  0  0  0  0  0  0  0  0  0  0  0
   15.8428   22.1253   33.2859 O   0  0  0  0  0  0  0  0  0  0  0  0
   13.9766   19.6150   32.3247 C   0  0  0  0  0  0  0  0  0  0  0  0
   13.9334   18.2413   32.0140 C   0  0  0  0  0  0  0  0  0  0  0  0
   14.9383   17.6403   31.2561 C   0  0  0  0  0  0  0  0  0  0  0  0
   16.0006   18.4023   30.7865 C   0  0  0  0  0  0  0  0  0  0  0  0
   16.0580   19.7646   31.0799 C   0  0  0  0  0  0  0  0  0  0  0  0
   15.0594   20.3872   31.8512 C   0  0  0  0  0  0  0  0  0  0  0  0
   11.5177   19.4486   32.8500 C   0  0  0  0  0  0  0  0  0  0  0  0
   12.8175   20.1996   33.1022 C   0  0  0  0  0  0  0  0  0  0  0  0
   16.5265   24.1077   34.5182 C   0  0  0  0  0  0  0  0  0  0  0  0
   17.1679   25.1538   34.4586 O   0  0  0  0  0  0  0  0  0  0  0  0
   16.3772   23.4077   35.6951 N   0  0  0  0  0  0  0  0  0  0  0  0
   15.8786   22.5230   35.6583 H   0  0  0  0  0  0  0  0  0  0  0  0
   16.9373   23.8610   36.9543 C   0  0  0  0  0  0  0  0  0  0  0  0
   15.8894   23.9998   38.0720 C   0  0  1  0  0  0  0  0  0  0  0  0
   16.5151   23.7762   39.4007 N   0  0  0  0  0  0  0  0  0  0  0  0
   16.7103   22.7795   39.4991 H   0  0  0  0  0  0  0  0  0  0  0  0
   15.8090   23.9970   40.1082 H   0  0  0  0  0  0  0  0  0  0  0  0
   15.2510   25.3929   38.0354 C   0  0  0  0  0  0  0  0  0  0  0  0
   14.3837   25.8360   38.7713 O   0  0  0  0  0  0  0  0  0  0  0  0
   15.7941   26.1867   37.0791 O   0  0  0  0  0  0  0  0  0  0  0  0
   15.2952   27.0256   37.1660 H   0  0  0  0  0  0  0  0  0  0  0  0
   14.2970   23.0317   30.5853 H   0  0  0  0  0  0  0  0  0  0  0  0
   15.1299   25.0510   32.0832 H   0  0  0  0  0  0  0  0  0  0  0  0
   13.1441   17.6696   32.3533 H   0  0  0  0  0  0  0  0  0  0  0  0
   14.8927   16.6312   31.0446 H   0  0  0  0  0  0  0  0  0  0  0  0
   16.7445   17.9621   30.2227 H   0  0  0  0  0  0  0  0  0  0  0  0
   16.8475   20.3263   30.7247 H   0  0  0  0  0  0  0  0  0  0  0  0
   10.7304   19.8971   33.4192 H   0  0  0  0  0  0  0  0  0  0  0  0
   11.6333   18.4265   33.1448 H   0  0  0  0  0  0  0  0  0  0  0  0
   11.2757   19.4943   31.8087 H   0  0  0  0  0  0  0  0  0  0  0  0
   13.0450   20.1531   34.1467 H   0  0  0  0  0  0  0  0  0  0  0  0
   12.6810   21.2100   32.7775 H   0  0  0  0  0  0  0  0  0  0  0  0
   17.3956   24.8152   36.7981 H   0  0  0  0  0  0  0  0  0  0  0  0
   17.6428   23.1217   37.2716 H   0  0  0  0  0  0  0  0  0  0  0  0
   15.1314   23.2615   37.9129 H   0  0  0  0  0  0  0  0  0  0  0  0
  1  2  2  0
  2  3  1  0
  2 27  1  0
  3  4  2  0
  3 28  1  0
  4 14  1  0
  4  5  1  0
  5  1  1  0
  6  7  2  0
  7  8  1  0
  7 29  1  0
  8  9  2  0
  8 30  1  0
  9 10  1  0
  9 31  1  0
 10 11  2  0
 10 32  1  0
 11  1  1  0
 11  6  1  0
 12 13  1  0
 12 33  1  0
 12 34  1  0
 12 35  1  0
 13  6  1  0
 13 36  1  0
 13 37  1  0
 14 15  2  0
 14 16  1  0
 16 18  1  0
 16 17  1  0
 18 19  1  0
 18 38  1  0
 18 39  1  0
 19 20  1  0
 19 23  1  0
 19 40  1  6
 20 21  1  0
 20 22  1  0
 23 24  2  0
 23 25  1  0
 25 26  1  0
M  END
>  <minimizedAffinity>  (9) 
-6.96040

>  <mol_id>  (9) 
132866

>  <source_index>  (9) 
8

>  <layer>  (9) 
L3

>  <uniprot>  (9) 
Q00959

>  <paff>  (9) 
6.2675999999999998

>  <smiles>  (9) 
CCc1ccccc1-c1ccc(o1)C(=O)NC[C@@H](N)C(O)=O |r|

$$$$
L3:Q00959:139001
     RDKit          3D

 46 48  0  0  0  0  0  0  0  0999 V2000
   17.8953   16.9374   33.4163 C   0  0  0  0  0  0  0  0  0  0  0  0
   17.1938   17.7742   32.3897 C   0  0  0  0  0  0  0  0  0  0  0  0
   16.5156   18.8673   32.8342 N   0  0  0  0  0  0  0  0  0  0  0  0
   15.8962   19.6031   31.8662 C   0  0  0  0  0  0  0  0  0  0  0  0
   15.9506   19.2654   30.5233 C   0  0  0  0  0  0  0  0  0  0  0  0
   16.6262   18.1753   30.0748 N   0  0  0  0  0  0  0  0  0  0  0  0
   17.2416   17.4404   31.0302 C   0  0  0  0  0  0  0  0  0  0  0  0
   15.1456   20.8122   32.3039 C   0  0  0  0  0  0  0  0  0  0  0  0
   13.9408   20.7683   32.5208 O   0  0  0  0  0  0  0  0  0  0  0  0
   15.9147   21.9473   32.4274 N   0  0  0  0  0  0  0  0  0  0  0  0
   16.8991   21.8641   32.1887 H   0  0  0  0  0  0  0  0  0  0  0  0
   15.3659   23.2306   32.7854 C   0  0  0  0  0  0  0  0  0  0  0  0
   16.3276   24.0100   33.6313 C   0  0  0  0  0  0  0  0  0  0  0  0
   16.2900   23.9596   35.0276 C   0  0  0  0  0  0  0  0  0  0  0  0
   17.2158   24.6882   35.7692 C   0  0  0  0  0  0  0  0  0  0  0  0
   18.1572   25.4408   35.0871 C   0  0  0  0  0  0  0  0  0  0  0  0
   18.2329   25.5067   33.7414 N   0  0  0  0  0  0  0  0  0  0  0  0
   17.3219   24.7881   33.0451 C   0  0  0  0  0  0  0  0  0  0  0  0
   17.9546   16.3246   30.6578 O   0  0  0  0  0  0  0  0  0  0  0  0
   19.0940   16.6340   29.8428 C   0  0  0  0  0  0  0  0  0  0  0  0
   20.5856   15.7625   30.3378 S   0  0  0  0  0  0  0  0  0  0  0  0
   20.7807   15.9219   31.7676 O   0  0  0  0  0  0  0  0  0  0  0  0
   20.5702   14.4382   29.7423 O   0  0  0  0  0  0  0  0  0  0  0  0
   21.8748   16.6860   29.5303 C   0  0  0  0  0  0  0  0  0  0  0  0
   23.2147   16.3780   29.7842 C   0  0  0  0  0  0  0  0  0  0  0  0
   24.2178   17.1099   29.1483 C   0  0  0  0  0  0  0  0  0  0  0  0
   23.8795   18.1441   28.2724 C   0  0  0  0  0  0  0  0  0  0  0  0
   22.5381   18.4517   28.0404 C   0  0  0  0  0  0  0  0  0  0  0  0
   22.1289   19.7248   26.9584 Cl  0  0  0  0  0  0  0  0  0  0  0  0
   21.5272   17.7329   28.6718 C   0  0  0  0  0  0  0  0  0  0  0  0
   17.7378   17.3580   34.3875 H   0  0  0  0  0  0  0  0  0  0  0  0
   18.9436   16.9155   33.2029 H   0  0  0  0  0  0  0  0  0  0  0  0
   17.5054   15.9413   33.3915 H   0  0  0  0  0  0  0  0  0  0  0  0
   15.4605   19.8632   29.8396 H   0  0  0  0  0  0  0  0  0  0  0  0
   14.4587   23.0826   33.3332 H   0  0  0  0  0  0  0  0  0  0  0  0
   15.1768   23.7824   31.8884 H   0  0  0  0  0  0  0  0  0  0  0  0
   15.5792   23.3849   35.5066 H   0  0  0  0  0  0  0  0  0  0  0  0
   17.2010   24.6680   36.8009 H   0  0  0  0  0  0  0  0  0  0  0  0
   18.8401   25.9824   35.6397 H   0  0  0  0  0  0  0  0  0  0  0  0
   17.3671   24.8189   32.0146 H   0  0  0  0  0  0  0  0  0  0  0  0
   19.2796   17.6859   29.9051 H   0  0  0  0  0  0  0  0  0  0  0  0
   18.8626   16.3217   28.8459 H   0  0  0  0  0  0  0  0  0  0  0  0
   23.4595   15.6163   30.4360 H   0  0  0  0  0  0  0  0  0  0  0  0
   25.2099   16.8872   29.3250 H   0  0  0  0  0  0  0  0  0  0  0  0
   24.6216   18.6808   27.7967 H   0  0  0  0  0  0  0  0  0  0  0  0
   20.5360   17.9693   28.5086 H   0  0  0  0  0  0  0  0  0  0  0  0
  1  2  1  0
  1 31  1  0
  1 32  1  0
  1 33  1  0
  2  3  2  0
  3  4  1  0
  4  8  1  0
  4  5  2  0
  5  6  1  0
  5 34  1  0
  6  7  2  0
  7 19  1  0
  7  2  1  0
  8  9  2  0
  8 10  1  0
 10 12  1  0
 10 11  1  0
 12 13  1  0
 12 35  1  0
 12 36  1  0
 13 14  2  0
 14 15  1  0
 14 37  1  0
 15 16  2  0
 15 38  1  0
 16 17  1  0
 16 39  1  0
 17 18  2  0
 18 13  1  0
 18 40  1  0
 19 20  1  0
 20 21  1  0
 20 41  1  0
 20 42  1  0
 21 22  2  0
 21 23  2  0
 21 24  1  0
 24 25  2  0
 25 26  1  0
 25 43  1  0
 26 27  2  0
 26 44  1  0
 27 28  1  0
 27 45  1  0
 28 29  1  0
 28 30  2  0
 30 24  1  0
 30 46  1  0
M  END
>  <minimizedAffinity>  (10) 
-5.92083

>  <mol_id>  (10) 
139001

>  <source_index>  (10) 
9

>  <layer>  (10) 
L3

>  <uniprot>  (10) 
Q00959

>  <paff>  (10) 
7.6021000000000001

>  <smiles>  (10) 
Cc1c(ncc(n1)C(=O)NCc2cccnc2)OCS(=O)(=O)c3cccc(c3)Cl

$$$$
