L2:Q06187:108091


 37 41  0  0  0  0  0  0  0  0999 V2000
   -3.0847  -33.2325   20.9778 C   0  0  0  0  0  0  0  0  0  0  0  0
   -3.0852  -31.7606   20.6673 C   0  0  0  0  0  0  0  0  0  0  0  0
   -2.0287  -30.9661   21.1459 C   0  0  0  0  0  0  0  0  0  0  0  0
   -1.9820  -29.5924   20.8784 C   0  0  0  0  0  0  0  0  0  0  0  0
   -3.0121  -28.9917   20.1552 C   0  0  0  0  0  0  0  0  0  0  0  0
   -4.0616  -29.7714   19.6680 C   0  0  0  0  0  0  0  0  0  0  0  0
   -4.1057  -31.1592   19.9004 C   0  0  0  0  0  0  0  0  0  0  0  0
   -0.8556  -28.7953   21.4234 C   0  0  0  0  0  0  0  0  0  0  0  0
   -0.0599  -29.3315   22.2978 N   0  0  0  0  0  0  0  0  0  0  0  0
    0.9594  -28.5688   22.8146 C   0  0  0  0  0  0  0  0  0  0  0  0
    1.2436  -27.3389   22.5190 N   0  0  0  0  0  0  0  0  0  0  0  0
    0.4320  -26.8005   21.5928 N   0  0  0  0  0  0  0  0  0  0  0  0
    0.5278  -25.5330   21.0874 C   0  0  0  0  0  0  0  0  0  0  0  0
   -0.4451  -25.3804   20.1283 C   0  0  0  0  0  0  0  0  0  0  0  0
   -1.1590  -26.6021   20.0590 C   0  0  0  0  0  0  0  0  0  0  0  0
   -0.6098  -27.4520   20.9996 C   0  0  0  0  0  0  0  0  0  0  0  0
   -0.6614  -24.2717   19.3906 N   0  0  0  0  0  0  0  0  0  0  0  0
    0.3783  -23.4942   18.7256 C   0  0  0  0  0  0  0  0  0  0  0  0
   -0.3111  -22.1849   18.3592 C   0  0  0  0  0  0  0  0  0  0  0  0
   -1.7172  -22.6375   18.0380 C   0  0  0  0  0  0  0  0  0  0  0  0
   -2.5964  -21.6200   18.1354 F   0  0  0  0  0  0  0  0  0  0  0  0
   -1.7748  -23.1073   16.7686 F   0  0  0  0  0  0  0  0  0  0  0  0
   -1.9928  -23.7504   19.0501 C   0  0  0  0  0  0  0  0  0  0  0  0
   -5.2855  -31.9359   19.3621 C   0  0  0  0  0  0  0  0  0  0  0  0
   -6.1010  -31.0999   18.5203 N   0  0  0  0  0  0  0  0  0  0  0  0
   -6.6114  -31.5274   17.3099 C   0  0  0  0  0  0  0  0  0  0  0  0
   -6.4511  -32.6674   16.8815 O   0  0  0  0  0  0  0  0  0  0  0  0
   -6.2538  -30.1286   18.7689 H   0  0  0  0  0  0  0  0  0  0  0  0
   -7.3540  -30.4750   16.6001 C   0  0  0  0  0  0  0  0  0  0  0  0
   -8.4835  -30.6998   15.9100 N   0  0  0  0  0  0  0  0  0  0  0  0
   -8.8224  -29.4446   15.4131 O   0  0  0  0  0  0  0  0  0  0  0  0
   -7.8655  -28.5732   15.8504 C   0  0  0  0  0  0  0  0  0  0  0  0
   -6.9403  -29.1489   16.5864 N   0  0  0  0  0  0  0  0  0  0  0  0
   -8.0118  -27.1367   15.4368 C   0  0  0  0  0  0  0  0  0  0  0  0
   -7.8062  -27.0078   13.9183 C   0  0  0  0  0  0  0  0  0  0  0  0
   -9.4125  -26.6259   15.8128 C   0  0  0  0  0  0  0  0  0  0  0  0
   -6.9602  -26.2706   16.1537 C   0  0  0  0  0  0  0  0  0  0  0  0
  1  2  1  0  0  0
  2  3  2  0  0  0
  3  4  1  0  0  0
  4  8  1  0  0  0
  8  9  2  0  0  0
  9 10  1  0  0  0
 10 11  2  0  0  0
 11 12  1  0  0  0
 12 13  1  0  0  0
 13 14  2  0  0  0
 14 17  1  0  0  0
 17 18  1  0  0  0
 18 19  1  0  0  0
 19 20  1  0  0  0
 20 21  1  0  0  0
 20 22  1  0  0  0
 20 23  1  0  0  0
 14 15  1  0  0  0
 15 16  2  0  0  0
  4  5  2  0  0  0
  5  6  1  0  0  0
  6  7  2  0  0  0
  7 24  1  0  0  0
 24 25  1  0  0  0
 25 26  1  0  0  0
 26 27  2  0  0  0
 26 29  1  0  0  0
 29 30  2  0  0  0
 30 31  1  0  0  0
 31 32  1  0  0  0
 32 34  1  0  0  0
 34 35  1  0  0  0
 34 36  1  0  0  0
 34 37  1  0  0  0
 32 33  2  0  0  0
  7  2  1  0  0  0
 33 29  1  0  0  0
 16  8  1  0  0  0
 16 12  1  0  0  0
 23 17  1  0  0  0
 25 28  1  0  0  0
M  END
> <minimizedAffinity>
-10.58025

$$$$
