L2:Q06187:108091
     RDKit          3D

 63 67  0  0  0  0  0  0  0  0999 V2000
    1.2764    0.6240    3.4936 C   0  0  0  0  0  0  0  0  0  0  0  0
    0.4575    0.4950    2.2383 C   0  0  0  0  0  0  0  0  0  0  0  0
   -0.4958   -0.5348    2.1533 C   0  0  0  0  0  0  0  0  0  0  0  0
   -1.2859   -0.6923    1.0080 C   0  0  0  0  0  0  0  0  0  0  0  0
   -2.2635   -1.8073    0.9610 C   0  0  0  0  0  0  0  0  0  0  0  0
   -1.9176   -2.9772    1.4047 N   0  0  0  0  0  0  0  0  0  0  0  0
   -2.8251   -4.0057    1.3251 C   0  0  0  0  0  0  0  0  0  0  0  0
   -4.0323   -3.9493    0.8557 N   0  0  0  0  0  0  0  0  0  0  0  0
   -4.3918   -2.7283    0.4241 N   0  0  0  0  0  0  0  0  0  0  0  0
   -5.6128   -2.3918   -0.0924 C   0  0  0  0  0  0  0  0  0  0  0  0
   -5.6052   -1.0445   -0.3652 C   0  0  0  0  0  0  0  0  0  0  0  0
   -6.6345   -0.3342   -0.8713 N   0  0  0  0  0  0  0  0  0  0  0  0
   -6.6039    1.0965   -1.1539 C   0  0  0  0  0  0  0  0  0  0  0  0
   -8.0691    1.4710   -1.3452 C   0  0  0  0  0  0  0  0  0  0  0  0
   -8.6365    0.2345   -2.0042 C   0  0  0  0  0  0  0  0  0  0  0  0
   -9.9738    0.1628   -1.8479 F   0  0  0  0  0  0  0  0  0  0  0  0
   -8.3813    0.2592   -3.3345 F   0  0  0  0  0  0  0  0  0  0  0  0
   -7.9031   -0.9224   -1.3241 C   0  0  0  0  0  0  0  0  0  0  0  0
   -4.3264   -0.5524   -0.0052 C   0  0  0  0  0  0  0  0  0  0  0  0
   -3.5879   -1.6262    0.4534 C   0  0  0  0  0  0  0  0  0  0  0  0
   -1.1067    0.1611   -0.0804 C   0  0  0  0  0  0  0  0  0  0  0  0
   -0.1694    1.1919   -0.0045 C   0  0  0  0  0  0  0  0  0  0  0  0
    0.6092    1.3835    1.1527 C   0  0  0  0  0  0  0  0  0  0  0  0
    1.6211    2.5065    1.1541 C   0  0  0  0  0  0  0  0  0  0  0  0
    2.8653    2.0684    0.5775 N   0  0  0  0  0  0  0  0  0  0  0  0
    3.2306    2.3574   -0.7230 C   0  0  0  0  0  0  0  0  0  0  0  0
    2.5468    3.0509   -1.4715 O   0  0  0  0  0  0  0  0  0  0  0  0
    4.5115    1.7444   -1.1056 C   0  0  0  0  0  0  0  0  0  0  0  0
    5.0683    1.8838   -2.3193 N   0  0  0  0  0  0  0  0  0  0  0  0
    6.2435    1.1433   -2.2306 O   0  0  0  0  0  0  0  0  0  0  0  0
    6.2908    0.6238   -0.9680 C   0  0  0  0  0  0  0  0  0  0  0  0
    7.4801   -0.2273   -0.6255 C   0  0  0  0  0  0  0  0  0  0  0  0
    7.5386   -1.4436   -1.5646 C   0  0  0  0  0  0  0  0  0  0  0  0
    8.7700    0.5973   -0.7685 C   0  0  0  0  0  0  0  0  0  0  0  0
    7.3711   -0.7279    0.8262 C   0  0  0  0  0  0  0  0  0  0  0  0
    5.2556    0.9623   -0.2312 N   0  0  0  0  0  0  0  0  0  0  0  0
    1.1036   -0.2161    4.1748 H   0  0  0  0  0  0  0  0  0  0  0  0
    1.0109    1.5434    4.0247 H   0  0  0  0  0  0  0  0  0  0  0  0
    2.3448    0.6321    3.2562 H   0  0  0  0  0  0  0  0  0  0  0  0
   -0.6273   -1.2243    2.9860 H   0  0  0  0  0  0  0  0  0  0  0  0
   -2.4702   -4.9801    1.7024 H   0  0  0  0  0  0  0  0  0  0  0  0
   -6.3743   -3.1490   -0.2012 H   0  0  0  0  0  0  0  0  0  0  0  0
   -6.1665    1.6775   -0.3350 H   0  0  0  0  0  0  0  0  0  0  0  0
   -6.0312    1.2845   -2.0696 H   0  0  0  0  0  0  0  0  0  0  0  0
   -8.1832    2.3695   -1.9579 H   0  0  0  0  0  0  0  0  0  0  0  0
   -8.5550    1.6444   -0.3780 H   0  0  0  0  0  0  0  0  0  0  0  0
   -7.7354   -1.7394   -2.0336 H   0  0  0  0  0  0  0  0  0  0  0  0
   -8.4742   -1.2919   -0.4654 H   0  0  0  0  0  0  0  0  0  0  0  0
   -3.9861    0.4712   -0.0735 H   0  0  0  0  0  0  0  0  0  0  0  0
   -1.6685    0.0232   -1.0004 H   0  0  0  0  0  0  0  0  0  0  0  0
   -0.0332    1.8469   -0.8656 H   0  0  0  0  0  0  0  0  0  0  0  0
    1.2258    3.3695    0.6057 H   0  0  0  0  0  0  0  0  0  0  0  0
    1.8290    2.8554    2.1701 H   0  0  0  0  0  0  0  0  0  0  0  0
    3.4777    1.4547    1.1039 H   0  0  0  0  0  0  0  0  0  0  0  0
    7.6499   -1.1391   -2.6119 H   0  0  0  0  0  0  0  0  0  0  0  0
    8.3855   -2.0941   -1.3181 H   0  0  0  0  0  0  0  0  0  0  0  0
    6.6237   -2.0440   -1.4948 H   0  0  0  0  0  0  0  0  0  0  0  0
    9.6515    0.0039   -0.5000 H   0  0  0  0  0  0  0  0  0  0  0  0
    8.9106    0.9505   -1.7969 H   0  0  0  0  0  0  0  0  0  0  0  0
    8.7509    1.4811   -0.1197 H   0  0  0  0  0  0  0  0  0  0  0  0
    6.4653   -1.3278    0.9754 H   0  0  0  0  0  0  0  0  0  0  0  0
    7.3317    0.1075    1.5353 H   0  0  0  0  0  0  0  0  0  0  0  0
    8.2307   -1.3521    1.0961 H   0  0  0  0  0  0  0  0  0  0  0  0
  1  2  1  0
  2  3  2  0
  3  4  1  0
  4  5  1  0
  5  6  2  0
  6  7  1  0
  7  8  2  0
  8  9  1  0
  9 10  1  0
 10 11  2  0
 11 12  1  0
 12 13  1  0
 13 14  1  0
 14 15  1  0
 15 16  1  0
 15 17  1  0
 15 18  1  0
 11 19  1  0
 19 20  2  0
  4 21  2  0
 21 22  1  0
 22 23  2  0
 23 24  1  0
 24 25  1  0
 25 26  1  0
 26 27  2  0
 26 28  1  0
 28 29  2  0
 29 30  1  0
 30 31  1  0
 31 32  1  0
 32 33  1  0
 32 34  1  0
 32 35  1  0
 31 36  2  0
 23  2  1  0
 36 28  1  0
 20  5  1  0
 20  9  1  0
 18 12  1  0
  1 37  1  0
  1 38  1  0
  1 39  1  0
  3 40  1  0
  7 41  1  0
 10 42  1  0
 13 43  1  0
 13 44  1  0
 14 45  1  0
 14 46  1  0
 18 47  1  0
 18 48  1  0
 19 49  1  0
 21 50  1  0
 22 51  1  0
 24 52  1  0
 24 53  1  0
 25 54  1  0
 33 55  1  0
 33 56  1  0
 33 57  1  0
 34 58  1  0
 34 59  1  0
 34 60  1  0
 35 61  1  0
 35 62  1  0
 35 63  1  0
M  END
>  <mol_id>  (1) 
108091

>  <source_index>  (1) 
3

>  <layer>  (1) 
L2

>  <uniprot>  (1) 
Q06187

>  <paff>  (1) 
9

>  <smiles>  (1) 
Cc1cc(-c2ncnn3cc(N4CCC(F)(F)C4)cc23)ccc1CNC(=O)c1noc(C(C)(C)C)n1

$$$$
