L2:Q06187:114484


 44 49  0  0  0  0  0  0  0  0999 V2000
   -0.7329  -28.1350   20.5881 N   0  0  0  0  0  0  0  0  0  0  0  0
   -0.0454  -28.3978   21.7485 C   0  0  0  0  0  0  0  0  0  0  0  0
    0.8175  -27.4407   22.1434 N   0  0  0  0  0  0  0  0  0  0  0  0
    1.5352  -27.6238   23.2704 C   0  0  0  0  0  0  0  0  0  0  0  0
    1.5165  -28.7642   24.0708 C   0  0  0  0  0  0  0  0  0  0  0  0
    0.6569  -29.7869   23.6323 C   0  0  0  0  0  0  0  0  0  0  0  0
   -0.1716  -29.5795   22.5121 C   0  0  0  0  0  0  0  0  0  0  0  0
   -1.0179  -30.7266   22.4608 C   0  0  0  0  0  0  0  0  0  0  0  0
   -0.6765  -31.6213   23.3921 N   0  0  0  0  0  0  0  0  0  0  0  0
    0.4116  -31.0977   23.9947 N   0  0  0  0  0  0  0  0  0  0  0  0
    1.2181  -32.0509   24.7592 C   0  0  0  0  0  0  0  0  0  0  0  0
    0.8951  -32.0599   26.2569 C   0  0  0  0  0  0  0  0  0  0  0  0
    1.6960  -33.1455   26.9872 C   0  0  0  0  0  0  0  0  0  0  0  0
    3.1826  -33.1989   26.6031 C   0  0  0  0  0  0  0  0  0  0  0  0
    3.5861  -32.0332   25.7001 C   0  0  0  0  0  0  0  0  0  0  0  0
    2.7216  -32.0167   24.4374 C   0  0  0  0  0  0  0  0  0  0  0  0
    5.0302  -31.9600   25.5080 N   0  0  0  0  0  0  0  0  0  0  0  0
    5.6783  -31.7122   24.3159 C   0  0  0  0  0  0  0  0  0  0  0  0
    5.2136  -31.9121   23.2006 O   0  0  0  0  0  0  0  0  0  0  0  0
    7.0282  -31.0509   24.4968 C   0  0  0  0  0  0  0  0  0  0  0  0
    6.9433  -29.5359   24.2564 C   0  0  0  0  0  0  0  0  0  0  0  0
    5.9778  -28.8061   25.2062 C   0  0  0  0  0  0  0  0  0  0  0  0
    4.5980  -28.5111   24.5799 C   0  0  0  0  0  0  0  0  0  0  0  0
    3.4896  -28.5637   25.6024 C   0  0  0  0  0  0  0  0  0  0  0  0
    2.1802  -28.7679   25.3709 C   0  0  0  0  0  0  0  0  0  0  0  0
   -1.2670  -28.8436   20.1143 H   0  0  0  0  0  0  0  0  0  0  0  0
   -0.4809  -27.2762   20.1204 H   0  0  0  0  0  0  0  0  0  0  0  0
    5.5781  -31.8710   26.3540 H   0  0  0  0  0  0  0  0  0  0  0  0
   -2.1481  -30.9957   21.5776 C   0  0  0  0  0  0  0  0  0  0  0  0
   -2.2129  -32.1891   20.8457 C   0  0  0  0  0  0  0  0  0  0  0  0
   -3.2935  -32.4414   19.9932 C   0  0  0  0  0  0  0  0  0  0  0  0
   -4.3224  -31.4983   19.8666 C   0  0  0  0  0  0  0  0  0  0  0  0
   -4.2439  -30.2923   20.5747 C   0  0  0  0  0  0  0  0  0  0  0  0
   -3.1629  -30.0432   21.4255 C   0  0  0  0  0  0  0  0  0  0  0  0
   -5.4932  -31.7186   18.9675 C   0  0  0  0  0  0  0  0  0  0  0  0
   -5.5559  -32.7666   18.3355 O   0  0  0  0  0  0  0  0  0  0  0  0
   -6.3905  -30.6790   18.9130 N   0  0  0  0  0  0  0  0  0  0  0  0
   -6.1995  -29.8146   19.3980 H   0  0  0  0  0  0  0  0  0  0  0  0
   -7.5881  -30.6074   18.2009 C   0  0  0  0  0  0  0  0  0  0  0  0
   -8.7798  -31.1884   18.6102 C   0  0  0  0  0  0  0  0  0  0  0  0
   -9.9102  -31.0394   17.8076 C   0  0  0  0  0  0  0  0  0  0  0  0
   -9.8186  -30.3167   16.6261 C   0  0  0  0  0  0  0  0  0  0  0  0
   -8.5922  -29.7693   16.2963 C   0  0  0  0  0  0  0  0  0  0  0  0
   -7.4811  -29.8974   17.0555 N   0  0  0  0  0  0  0  0  0  0  0  0
  1  2  1  0  0  0
  2  3  2  0  0  0
  3  4  1  0  0  0
  4  5  2  0  0  0
  5  6  1  0  0  0
  6  7  2  0  0  0
  7  8  1  0  0  0
  8 29  1  0  0  0
 29 30  2  0  0  0
 30 31  1  0  0  0
 31 32  2  0  0  0
 32 35  1  0  0  0
 35 36  2  0  0  0
 35 37  1  0  0  0
 37 39  1  0  0  0
 39 40  2  0  0  0
 40 41  1  0  0  0
 41 42  2  0  0  0
 42 43  1  0  0  0
 43 44  2  0  0  0
 32 33  1  0  0  0
 33 34  2  0  0  0
  8  9  2  0  0  0
  9 10  1  0  0  0
 10 11  1  0  0  0
 11 12  1  0  0  0
 12 13  1  0  0  0
 13 14  1  0  0  0
 14 15  1  0  0  0
 15 16  1  0  0  0
 15 17  1  0  0  0
 17 18  1  0  0  0
 18 19  2  0  0  0
 18 20  1  0  0  0
 20 21  1  0  0  0
 21 22  1  0  0  0
 22 23  1  0  0  0
 23 24  1  0  0  0
 24 25  2  0  0  0
  7  2  1  0  0  0
 34 29  1  0  0  0
 16 11  1  0  0  0
 25  5  1  0  0  0
 10  6  1  0  0  0
 44 39  1  0  0  0
  1 26  1  0  0  0
  1 27  1  0  0  0
 37 38  1  0  0  0
 17 28  1  0  0  0
M  END
> <minimizedAffinity>
-11.20516

$$$$
