L2:Q06187:118980
     RDKit          3D

 63 67  0  0  0  0  0  0  0  0999 V2000
    1.9218   -1.6268    1.3205 C   0  0  0  0  0  0  0  0  0  0  0  0
    1.4262   -0.2458    1.6818 C   0  0  0  0  0  0  0  0  0  0  0  0
    0.1560   -0.1022    2.2933 C   0  0  0  0  0  0  0  0  0  0  0  0
   -0.7418   -1.2471    2.4976 C   0  0  0  0  0  0  0  0  0  0  0  0
   -0.7219   -2.1137    3.5772 C   0  0  0  0  0  0  0  0  0  0  0  0
   -1.8096   -2.9917    3.4501 C   0  0  0  0  0  0  0  0  0  0  0  0
   -2.4787   -2.6842    2.2765 C   0  0  0  0  0  0  0  0  0  0  0  0
   -3.5716   -3.4586    1.7339 C   0  0  0  0  0  0  0  0  0  0  0  0
   -3.5739   -3.6380    0.3820 N   0  0  0  0  0  0  0  0  0  0  0  0
   -4.4345   -4.0014    2.4165 O   0  0  0  0  0  0  0  0  0  0  0  0
   -1.8891   -1.5339    1.7456 N   0  0  0  0  0  0  0  0  0  0  0  0
   -2.4106   -0.7538    0.6661 C   0  0  0  0  0  0  0  0  0  0  0  0
   -1.5688   -0.2193   -0.3100 C   0  0  0  0  0  0  0  0  0  0  0  0
   -2.1027    0.5411   -1.3552 C   0  0  0  0  0  0  0  0  0  0  0  0
   -3.4835    0.7969   -1.4505 C   0  0  0  0  0  0  0  0  0  0  0  0
   -4.0145    1.6338   -2.6136 C   0  0  0  0  0  0  0  0  0  0  0  0
   -3.9622    0.8288   -3.9167 C   0  0  0  0  0  0  0  0  0  0  0  0
   -5.4316    2.1876   -2.4147 C   0  0  0  0  0  0  0  0  0  0  0  0
   -3.1696    2.7811   -2.7828 O   0  0  0  0  0  0  0  0  0  0  0  0
   -4.3158    0.2457   -0.4655 C   0  0  0  0  0  0  0  0  0  0  0  0
   -3.7884   -0.5194    0.5822 C   0  0  0  0  0  0  0  0  0  0  0  0
   -0.2748    1.1560    2.7398 C   0  0  0  0  0  0  0  0  0  0  0  0
    0.5252    2.2786    2.5685 C   0  0  0  0  0  0  0  0  0  0  0  0
    1.7501    2.1593    1.9179 C   0  0  0  0  0  0  0  0  0  0  0  0
    2.2027    0.9153    1.4399 C   0  0  0  0  0  0  0  0  0  0  0  0
    3.4199    0.8816    0.6741 N   0  0  0  0  0  0  0  0  0  0  0  0
    4.5577    1.5018    1.1997 C   0  0  0  0  0  0  0  0  0  0  0  0
    4.6336    2.0630    2.2931 O   0  0  0  0  0  0  0  0  0  0  0  0
    5.6895    1.4544    0.4325 N   0  0  0  0  0  0  0  0  0  0  0  0
    5.7664    0.8417   -0.8133 C   0  0  0  0  0  0  0  0  0  0  0  0
    6.9714    0.8113   -1.5130 C   0  0  0  0  0  0  0  0  0  0  0  0
    8.0668    1.3728   -0.9806 F   0  0  0  0  0  0  0  0  0  0  0  0
    7.0566    0.2036   -2.7621 C   0  0  0  0  0  0  0  0  0  0  0  0
    5.9199   -0.3800   -3.3221 C   0  0  0  0  0  0  0  0  0  0  0  0
    4.7080   -0.3499   -2.6264 C   0  0  0  0  0  0  0  0  0  0  0  0
    4.6372    0.2624   -1.3672 C   0  0  0  0  0  0  0  0  0  0  0  0
    3.3695    0.3236   -0.6142 C   0  0  0  0  0  0  0  0  0  0  0  0
    2.3539   -0.0774   -1.1831 O   0  0  0  0  0  0  0  0  0  0  0  0
    1.4099   -1.9977    0.4277 H   0  0  0  0  0  0  0  0  0  0  0  0
    3.0011   -1.6479    1.1444 H   0  0  0  0  0  0  0  0  0  0  0  0
    1.7558   -2.3283    2.1443 H   0  0  0  0  0  0  0  0  0  0  0  0
    0.0086   -2.0991    4.3770 H   0  0  0  0  0  0  0  0  0  0  0  0
   -2.0673   -3.8089    4.1137 H   0  0  0  0  0  0  0  0  0  0  0  0
   -2.8686   -3.2536   -0.2295 H   0  0  0  0  0  0  0  0  0  0  0  0
   -4.3127   -4.2011   -0.0137 H   0  0  0  0  0  0  0  0  0  0  0  0
   -0.4986   -0.4056   -0.3155 H   0  0  0  0  0  0  0  0  0  0  0  0
   -1.4210    0.9356   -2.1094 H   0  0  0  0  0  0  0  0  0  0  0  0
   -2.9378    0.5226   -4.1591 H   0  0  0  0  0  0  0  0  0  0  0  0
   -4.3063    1.4340   -4.7637 H   0  0  0  0  0  0  0  0  0  0  0  0
   -4.5826   -0.0723   -3.8600 H   0  0  0  0  0  0  0  0  0  0  0  0
   -5.4991    2.7756   -1.4916 H   0  0  0  0  0  0  0  0  0  0  0  0
   -6.1857    1.3944   -2.3787 H   0  0  0  0  0  0  0  0  0  0  0  0
   -5.6999    2.8690   -3.2311 H   0  0  0  0  0  0  0  0  0  0  0  0
   -2.9181    3.0830   -1.8923 H   0  0  0  0  0  0  0  0  0  0  0  0
   -5.3918    0.4006   -0.4841 H   0  0  0  0  0  0  0  0  0  0  0  0
   -4.4734   -0.8940    1.3408 H   0  0  0  0  0  0  0  0  0  0  0  0
   -1.2409    1.2618    3.2293 H   0  0  0  0  0  0  0  0  0  0  0  0
    0.1877    3.2490    2.9223 H   0  0  0  0  0  0  0  0  0  0  0  0
    2.3362    3.0621    1.7578 H   0  0  0  0  0  0  0  0  0  0  0  0
    6.5154    1.8889    0.8308 H   0  0  0  0  0  0  0  0  0  0  0  0
    8.0051    0.1902   -3.2909 H   0  0  0  0  0  0  0  0  0  0  0  0
    5.9747   -0.8550   -4.2995 H   0  0  0  0  0  0  0  0  0  0  0  0
    3.8209   -0.8010   -3.0686 H   0  0  0  0  0  0  0  0  0  0  0  0
  1  2  1  0
  2  3  2  0
  3  4  1  0
  4  5  2  0
  5  6  1  0
  6  7  2  0
  7  8  1  0
  8  9  1  0
  8 10  2  0
  7 11  1  0
 11 12  1  0
 12 13  2  0
 13 14  1  0
 14 15  2  0
 15 16  1  0
 16 17  1  0
 16 18  1  0
 16 19  1  0
 15 20  1  0
 20 21  2  0
  3 22  1  0
 22 23  2  0
 23 24  1  0
 24 25  2  0
 25 26  1  0
 26 27  1  0
 27 28  2  0
 27 29  1  0
 29 30  1  0
 30 31  2  0
 31 32  1  0
 31 33  1  0
 33 34  2  0
 34 35  1  0
 35 36  2  0
 36 37  1  0
 37 38  2  0
 25  2  1  0
 37 26  1  0
 11  4  1  0
 21 12  1  0
 36 30  1  0
  1 39  1  0
  1 40  1  0
  1 41  1  0
  5 42  1  0
  6 43  1  0
  9 44  1  0
  9 45  1  0
 13 46  1  0
 14 47  1  0
 17 48  1  0
 17 49  1  0
 17 50  1  0
 18 51  1  0
 18 52  1  0
 18 53  1  0
 19 54  1  0
 20 55  1  0
 21 56  1  0
 22 57  1  0
 23 58  1  0
 24 59  1  0
 29 60  1  0
 33 61  1  0
 34 62  1  0
 35 63  1  0
M  END
>  <mol_id>  (1) 
118980

>  <source_index>  (1) 
5

>  <layer>  (1) 
L2

>  <uniprot>  (1) 
Q06187

>  <paff>  (1) 
6

>  <smiles>  (1) 
Cc1c(-c2ccc(C(N)=O)n2-c2ccc(C(C)(C)O)cc2)cccc1-n1c(=O)[nH]c2c(F)cccc2c1=O

$$$$
