L2:Q06187:118980
 OpenBabel09212617423D

 63 67  0  0  0  0  0  0  0  0999 V2000
   -5.4514  -26.1145   17.9165 C   0  0  0  0  0  0  0  0  0  0  0  0
   -4.6289  -26.6479   16.7666 C   0  0  0  0  0  0  0  0  0  0  0  0
   -3.4195  -25.9970   16.4177 C   0  0  0  0  0  0  0  0  0  0  0  0
   -2.5844  -26.5403   15.4300 C   0  0  0  0  0  0  0  0  0  0  0  0
   -2.9414  -27.7072   14.7664 C   0  0  0  0  0  0  0  0  0  0  0  0
   -4.1543  -28.3239   15.0605 C   0  0  0  0  0  0  0  0  0  0  0  0
   -5.0243  -27.7937   16.0315 C   0  0  0  0  0  0  0  0  0  0  0  0
   -6.3118  -28.4118   16.2029 N   0  0  0  0  0  0  0  0  0  0  0  0
   -7.3651  -28.0016   15.3796 C   0  0  0  0  0  0  0  0  0  0  0  0
   -7.2935  -27.1644   14.4795 O   0  0  0  0  0  0  0  0  0  0  0  0
   -8.5739  -28.6085   15.5850 N   0  0  0  0  0  0  0  0  0  0  0  0
   -8.8072  -29.5841   16.5479 C   0  0  0  0  0  0  0  0  0  0  0  0
  -10.0641  -30.1745   16.6661 C   0  0  0  0  0  0  0  0  0  0  0  0
  -11.0560  -29.8033   15.8432 F   0  0  0  0  0  0  0  0  0  0  0  0
  -10.3075  -31.1490   17.6293 C   0  0  0  0  0  0  0  0  0  0  0  0
   -9.2803  -31.5374   18.4897 C   0  0  0  0  0  0  0  0  0  0  0  0
   -8.0186  -30.9466   18.3779 C   0  0  0  0  0  0  0  0  0  0  0  0
   -7.7861  -29.9688   17.4005 C   0  0  0  0  0  0  0  0  0  0  0  0
   -6.4695  -29.3158   17.2666 C   0  0  0  0  0  0  0  0  0  0  0  0
   -5.6200  -29.5759   18.1190 O   0  0  0  0  0  0  0  0  0  0  0  0
   -9.3270  -28.3195   14.9695 H   0  0  0  0  0  0  0  0  0  0  0  0
   -2.9873  -24.7563   17.0752 C   0  0  0  0  0  0  0  0  0  0  0  0
   -3.2432  -23.4696   16.6327 C   0  0  0  0  0  0  0  0  0  0  0  0
   -2.7627  -22.5734   17.6001 C   0  0  0  0  0  0  0  0  0  0  0  0
   -2.1839  -23.3091   18.6216 C   0  0  0  0  0  0  0  0  0  0  0  0
   -2.4235  -24.6596   18.3546 N   0  0  0  0  0  0  0  0  0  0  0  0
   -2.1934  -25.7409   19.2622 C   0  0  0  0  0  0  0  0  0  0  0  0
   -2.8966  -25.8363   20.4637 C   0  0  0  0  0  0  0  0  0  0  0  0
   -2.6530  -26.9026   21.3350 C   0  0  0  0  0  0  0  0  0  0  0  0
   -1.6986  -27.8938   21.0387 C   0  0  0  0  0  0  0  0  0  0  0  0
   -1.0066  -27.7868   19.8237 C   0  0  0  0  0  0  0  0  0  0  0  0
   -1.2478  -26.7235   18.9448 C   0  0  0  0  0  0  0  0  0  0  0  0
   -1.4719  -29.0381   22.0259 C   0  0  0  0  0  0  0  0  0  0  0  0
   -2.1851  -30.3062   21.5444 C   0  0  0  0  0  0  0  0  0  0  0  0
    0.0009  -29.3604   22.3114 C   0  0  0  0  0  0  0  0  0  0  0  0
   -2.0429  -28.6780   23.2920 O   0  0  0  0  0  0  0  0  0  0  0  0
   -1.8689  -27.7294   23.4231 H   0  0  0  0  0  0  0  0  0  0  0  0
   -1.4576  -22.7337   19.7306 C   0  0  0  0  0  0  0  0  0  0  0  0
   -2.1607  -21.8961   20.5454 N   0  0  0  0  0  0  0  0  0  0  0  0
   -0.2931  -23.0057   20.0045 O   0  0  0  0  0  0  0  0  0  0  0  0
   -3.1327  -21.6664   20.3985 H   0  0  0  0  0  0  0  0  0  0  0  0
   -1.6795  -21.5070   21.3432 H   0  0  0  0  0  0  0  0  0  0  0  0
   -4.9727  -25.2499   18.3265 H   0  0  0  0  0  0  0  0  0  0  0  0
   -5.5375  -26.8667   18.6726 H   0  0  0  0  0  0  0  0  0  0  0  0
   -6.4265  -25.8492   17.5647 H   0  0  0  0  0  0  0  0  0  0  0  0
   -1.6971  -26.0689   15.1944 H   0  0  0  0  0  0  0  0  0  0  0  0
   -2.3105  -28.1150   14.0588 H   0  0  0  0  0  0  0  0  0  0  0  0
   -4.4202  -29.1850   14.5577 H   0  0  0  0  0  0  0  0  0  0  0  0
  -11.2414  -31.5814   17.7066 H   0  0  0  0  0  0  0  0  0  0  0  0
   -9.4517  -32.2593   19.2070 H   0  0  0  0  0  0  0  0  0  0  0  0
   -7.2579  -31.2302   19.0150 H   0  0  0  0  0  0  0  0  0  0  0  0
   -3.7063  -23.2141   15.7465 H   0  0  0  0  0  0  0  0  0  0  0  0
   -2.8290  -21.5444   17.5579 H   0  0  0  0  0  0  0  0  0  0  0  0
   -3.5970  -25.1193   20.7095 H   0  0  0  0  0  0  0  0  0  0  0  0
   -3.1859  -26.9643   22.2166 H   0  0  0  0  0  0  0  0  0  0  0  0
   -0.3078  -28.5037   19.5730 H   0  0  0  0  0  0  0  0  0  0  0  0
   -0.7250  -26.6638   18.0571 H   0  0  0  0  0  0  0  0  0  0  0  0
   -1.7828  -30.6045   20.5988 H   0  0  0  0  0  0  0  0  0  0  0  0
   -3.2317  -30.1092   21.4406 H   0  0  0  0  0  0  0  0  0  0  0  0
   -2.0388  -31.0903   22.2576 H   0  0  0  0  0  0  0  0  0  0  0  0
    0.4882  -29.6388   21.4004 H   0  0  0  0  0  0  0  0  0  0  0  0
    0.0602  -30.1694   23.0092 H   0  0  0  0  0  0  0  0  0  0  0  0
    0.4813  -28.4978   22.7237 H   0  0  0  0  0  0  0  0  0  0  0  0
  1  2  1  0  0  0  0
  1 43  1  0  0  0  0
  1 44  1  0  0  0  0
  1 45  1  0  0  0  0
  2  3  2  0  0  0  0
  3 22  1  0  0  0  0
  3  4  1  0  0  0  0
  4  5  2  0  0  0  0
  4 46  1  0  0  0  0
  5  6  1  0  0  0  0
  5 47  1  0  0  0  0
  6  7  2  0  0  0  0
  6 48  1  0  0  0  0
  7  8  1  0  0  0  0
  7  2  1  0  0  0  0
  8  9  1  0  0  0  0
  9 10  2  0  0  0  0
  9 11  1  0  0  0  0
 11 12  1  0  0  0  0
 11 21  1  0  0  0  0
 12 13  2  0  0  0  0
 13 14  1  0  0  0  0
 13 15  1  0  0  0  0
 15 16  2  0  0  0  0
 15 49  1  0  0  0  0
 16 17  1  0  0  0  0
 16 50  1  0  0  0  0
 17 18  2  0  0  0  0
 17 51  1  0  0  0  0
 18 19  1  0  0  0  0
 18 12  1  0  0  0  0
 19 20  2  0  0  0  0
 19  8  1  0  0  0  0
 22 23  2  0  0  0  0
 23 24  1  0  0  0  0
 23 52  1  0  0  0  0
 24 25  2  0  0  0  0
 24 53  1  0  0  0  0
 25 38  1  0  0  0  0
 25 26  1  0  0  0  0
 26 27  1  0  0  0  0
 26 22  1  0  0  0  0
 27 28  2  0  0  0  0
 28 29  1  0  0  0  0
 28 54  1  0  0  0  0
 29 30  2  0  0  0  0
 29 55  1  0  0  0  0
 30 33  1  0  0  0  0
 30 31  1  0  0  0  0
 31 32  2  0  0  0  0
 31 56  1  0  0  0  0
 32 27  1  0  0  0  0
 32 57  1  0  0  0  0
 33 34  1  0  0  0  0
 33 35  1  0  0  0  0
 33 36  1  0  0  0  0
 34 58  1  0  0  0  0
 34 59  1  0  0  0  0
 34 60  1  0  0  0  0
 35 61  1  0  0  0  0
 35 62  1  0  0  0  0
 35 63  1  0  0  0  0
 36 37  1  0  0  0  0
 38 39  1  0  0  0  0
 38 40  2  0  0  0  0
 39 41  1  0  0  0  0
 39 42  1  0  0  0  0
M  END
>  <minimizedAffinity>
-10.94813

$$$$
