L2:Q06187:133412
 OpenBabel09212617433D

 53 58  0  0  0  0  0  0  0  0999 V2000
   -7.8345  -30.2477   16.4973 C   0  0  0  0  0  0  0  0  0  0  0  0
   -9.1943  -30.5237   16.4179 C   0  0  0  0  0  0  0  0  0  0  0  0
   -9.8529  -29.3711   16.0814 N   0  0  0  0  0  0  0  0  0  0  0  0
   -8.9580  -28.3535   15.9243 C   0  0  0  0  0  0  0  0  0  0  0  0
   -9.3125  -27.0997   15.5918 N   0  0  0  0  0  0  0  0  0  0  0  0
   -8.2545  -26.2636   15.5044 C   0  0  0  0  0  0  0  0  0  0  0  0
   -6.9254  -26.6181   15.7096 C   0  0  0  0  0  0  0  0  0  0  0  0
   -6.5996  -27.9424   16.0516 C   0  0  0  0  0  0  0  0  0  0  0  0
   -7.6802  -28.8513   16.1678 C   0  0  0  0  0  0  0  0  0  0  0  0
   -5.2824  -28.3052   16.2914 N   0  0  0  0  0  0  0  0  0  0  0  0
   -4.1873  -27.4521   15.8171 C   0  0  1  0  0  0  0  0  0  0  0  0
   -2.9525  -27.6672   16.6797 C   0  0  0  0  0  0  0  0  0  0  0  0
   -1.8147  -27.5440   15.6921 C   0  0  0  0  0  0  0  0  0  0  0  0
   -2.2928  -28.1164   14.4724 O   0  0  0  0  0  0  0  0  0  0  0  0
   -3.7155  -27.8908   14.4212 C   0  0  0  0  0  0  0  0  0  0  0  0
   -4.5775  -25.9540   15.7638 C   0  0  0  0  0  0  0  0  0  0  0  0
   -3.7550  -25.0364   15.7743 O   0  0  0  0  0  0  0  0  0  0  0  0
   -5.9100  -25.6549   15.6125 N   0  0  0  0  0  0  0  0  0  0  0  0
  -10.8492  -29.2589   15.9597 H   0  0  0  0  0  0  0  0  0  0  0  0
   -5.0889  -29.2907   16.4934 H   0  0  0  0  0  0  0  0  0  0  0  0
   -6.1352  -24.6778   15.4844 H   0  0  0  0  0  0  0  0  0  0  0  0
   -6.5750  -32.2384   16.1991 O   0  0  0  0  0  0  0  0  0  0  0  0
   -6.7787  -31.2038   16.8311 C   0  0  0  0  0  0  0  0  0  0  0  0
   -5.9414  -30.9591   18.0199 C   0  0  0  0  0  0  0  0  0  0  0  0
   -6.0100  -29.6884   18.6083 C   0  0  0  0  0  0  0  0  0  0  0  0
   -5.2427  -29.4042   19.7385 C   0  0  0  0  0  0  0  0  0  0  0  0
   -4.4077  -30.3883   20.2758 C   0  0  0  0  0  0  0  0  0  0  0  0
   -4.3715  -31.6667   19.7146 C   0  0  0  0  0  0  0  0  0  0  0  0
   -5.1386  -31.9563   18.5836 C   0  0  0  0  0  0  0  0  0  0  0  0
   -5.0736  -33.5620   17.9535 Cl  0  0  0  0  0  0  0  0  0  0  0  0
   -3.6524  -30.1919   21.4104 O   0  0  0  0  0  0  0  0  0  0  0  0
   -2.9755  -28.9990   21.5174 C   0  0  0  0  0  0  0  0  0  0  0  0
   -1.9675  -28.7490   20.5864 C   0  0  0  0  0  0  0  0  0  0  0  0
   -1.2692  -27.5422   20.6284 C   0  0  0  0  0  0  0  0  0  0  0  0
   -1.5913  -26.5830   21.5895 C   0  0  0  0  0  0  0  0  0  0  0  0
   -2.6169  -26.8252   22.5045 C   0  0  0  0  0  0  0  0  0  0  0  0
   -3.3172  -28.0313   22.4654 C   0  0  0  0  0  0  0  0  0  0  0  0
   -9.6337  -31.4425   16.5845 H   0  0  0  0  0  0  0  0  0  0  0  0
   -8.4492  -25.2788   15.2652 H   0  0  0  0  0  0  0  0  0  0  0  0
   -2.9646  -28.6369   17.1319 H   0  0  0  0  0  0  0  0  0  0  0  0
   -2.8811  -26.9726   17.4905 H   0  0  0  0  0  0  0  0  0  0  0  0
   -0.9570  -28.0787   16.0434 H   0  0  0  0  0  0  0  0  0  0  0  0
   -1.5182  -26.5246   15.5587 H   0  0  0  0  0  0  0  0  0  0  0  0
   -4.2147  -28.7939   14.1382 H   0  0  0  0  0  0  0  0  0  0  0  0
   -3.9420  -27.1324   13.7012 H   0  0  0  0  0  0  0  0  0  0  0  0
   -6.6266  -28.9649   18.2064 H   0  0  0  0  0  0  0  0  0  0  0  0
   -5.2914  -28.4709   20.1762 H   0  0  0  0  0  0  0  0  0  0  0  0
   -3.7775  -32.3980   20.1358 H   0  0  0  0  0  0  0  0  0  0  0  0
   -1.7390  -29.4546   19.8688 H   0  0  0  0  0  0  0  0  0  0  0  0
   -0.5145  -27.3587   19.9488 H   0  0  0  0  0  0  0  0  0  0  0  0
   -1.0701  -25.6929   21.6237 H   0  0  0  0  0  0  0  0  0  0  0  0
   -2.8574  -26.1118   23.2104 H   0  0  0  0  0  0  0  0  0  0  0  0
   -4.0838  -28.2077   23.1334 H   0  0  0  0  0  0  0  0  0  0  0  0
  1  2  2  0  0  0  0
  2  3  1  0  0  0  0
  2 38  1  0  0  0  0
  3  4  1  0  0  0  0
  3 19  1  0  0  0  0
  4  5  2  0  0  0  0
  5  6  1  0  0  0  0
  6  7  2  0  0  0  0
  6 39  1  0  0  0  0
  7  8  1  0  0  0  0
  8  9  2  0  0  0  0
  8 10  1  0  0  0  0
  9  1  1  0  0  0  0
  9  4  1  0  0  0  0
 10 20  1  0  0  0  0
 11 10  1  0  0  0  0
 11 12  1  0  0  0  0
 11 16  1  6  0  0  0
 12 13  1  0  0  0  0
 12 40  1  0  0  0  0
 12 41  1  0  0  0  0
 13 14  1  0  0  0  0
 13 42  1  0  0  0  0
 13 43  1  0  0  0  0
 14 15  1  0  0  0  0
 15 11  1  0  0  0  0
 15 44  1  0  0  0  0
 15 45  1  0  0  0  0
 16 17  2  0  0  0  0
 16 18  1  0  0  0  0
 18  7  1  0  0  0  0
 18 21  1  0  0  0  0
 22 23  2  0  0  0  0
 23 24  1  0  0  0  0
 23  1  1  0  0  0  0
 24 25  2  0  0  0  0
 25 26  1  0  0  0  0
 25 46  1  0  0  0  0
 26 27  2  0  0  0  0
 26 47  1  0  0  0  0
 27 31  1  0  0  0  0
 27 28  1  0  0  0  0
 28 29  2  0  0  0  0
 28 48  1  0  0  0  0
 29 30  1  0  0  0  0
 29 24  1  0  0  0  0
 31 32  1  0  0  0  0
 32 33  2  0  0  0  0
 33 34  1  0  0  0  0
 33 49  1  0  0  0  0
 34 35  2  0  0  0  0
 34 50  1  0  0  0  0
 35 36  1  0  0  0  0
 35 51  1  0  0  0  0
 36 37  2  0  0  0  0
 36 52  1  0  0  0  0
 37 32  1  0  0  0  0
 37 53  1  0  0  0  0
M  END
>  <minimizedAffinity>
-11.44346

$$$$
