L2:Q06187:133412
     RDKit          3D

 53 58  0  0  0  0  0  0  0  0999 V2000
   -0.9409   -0.9469    0.4438 O   0  0  0  0  0  0  0  0  0  0  0  0
   -0.1197   -0.3080   -0.2111 C   0  0  0  0  0  0  0  0  0  0  0  0
    1.3024   -0.6609   -0.0456 C   0  0  0  0  0  0  0  0  0  0  0  0
    1.8926   -0.3993    1.1989 C   0  0  0  0  0  0  0  0  0  0  0  0
    3.2342   -0.7183    1.4119 C   0  0  0  0  0  0  0  0  0  0  0  0
    3.9825   -1.2946    0.3813 C   0  0  0  0  0  0  0  0  0  0  0  0
    5.2987   -1.6709    0.5315 O   0  0  0  0  0  0  0  0  0  0  0  0
    6.1348   -0.7915    1.1797 C   0  0  0  0  0  0  0  0  0  0  0  0
    6.9113   -1.2967    2.2224 C   0  0  0  0  0  0  0  0  0  0  0  0
    7.7996   -0.4571    2.8946 C   0  0  0  0  0  0  0  0  0  0  0  0
    7.9210    0.8795    2.5121 C   0  0  0  0  0  0  0  0  0  0  0  0
    7.1610    1.3767    1.4524 C   0  0  0  0  0  0  0  0  0  0  0  0
    6.2714    0.5396    0.7781 C   0  0  0  0  0  0  0  0  0  0  0  0
    3.3831   -1.5937   -0.8442 C   0  0  0  0  0  0  0  0  0  0  0  0
    2.0400   -1.2771   -1.0619 C   0  0  0  0  0  0  0  0  0  0  0  0
    1.3483   -1.6976   -2.5864 Cl  0  0  0  0  0  0  0  0  0  0  0  0
   -0.4772    0.8062   -1.0892 C   0  0  0  0  0  0  0  0  0  0  0  0
    0.4070    1.7069   -1.6709 C   0  0  0  0  0  0  0  0  0  0  0  0
   -0.3119    2.5983   -2.4220 N   0  0  0  0  0  0  0  0  0  0  0  0
   -1.6430    2.3127   -2.3341 C   0  0  0  0  0  0  0  0  0  0  0  0
   -2.5959    3.0200   -2.9665 N   0  0  0  0  0  0  0  0  0  0  0  0
   -3.8392    2.5428   -2.7372 C   0  0  0  0  0  0  0  0  0  0  0  0
   -4.1507    1.4541   -1.9299 C   0  0  0  0  0  0  0  0  0  0  0  0
   -3.1223    0.7457   -1.2837 C   0  0  0  0  0  0  0  0  0  0  0  0
   -1.8001    1.2032   -1.5069 C   0  0  0  0  0  0  0  0  0  0  0  0
   -3.4129   -0.3621   -0.5011 N   0  0  0  0  0  0  0  0  0  0  0  0
   -4.7787   -0.5778   -0.0111 C   0  0  1  0  0  0  0  0  0  0  0  0
   -5.0076   -2.0593    0.2490 C   0  0  0  0  0  0  0  0  0  0  0  0
   -5.9021   -2.0626    1.4676 C   0  0  0  0  0  0  0  0  0  0  0  0
   -5.4699   -0.9626    2.2721 O   0  0  0  0  0  0  0  0  0  0  0  0
   -4.9684    0.0514    1.3788 C   0  0  0  0  0  0  0  0  0  0  0  0
   -5.8538   -0.0060   -0.9685 C   0  0  0  0  0  0  0  0  0  0  0  0
   -7.0264   -0.3849   -0.9780 O   0  0  0  0  0  0  0  0  0  0  0  0
   -5.4817    1.0354   -1.7839 N   0  0  0  0  0  0  0  0  0  0  0  0
    1.3074    0.0426    2.0032 H   0  0  0  0  0  0  0  0  0  0  0  0
    3.6818   -0.5278    2.3846 H   0  0  0  0  0  0  0  0  0  0  0  0
    6.8220   -2.3397    2.5130 H   0  0  0  0  0  0  0  0  0  0  0  0
    8.4010   -0.8456    3.7126 H   0  0  0  0  0  0  0  0  0  0  0  0
    8.6163    1.5320    3.0347 H   0  0  0  0  0  0  0  0  0  0  0  0
    7.2688    2.4145    1.1474 H   0  0  0  0  0  0  0  0  0  0  0  0
    5.6987    0.9270   -0.0592 H   0  0  0  0  0  0  0  0  0  0  0  0
    3.9687   -2.0788   -1.6215 H   0  0  0  0  0  0  0  0  0  0  0  0
    1.4847    1.7925   -1.6219 H   0  0  0  0  0  0  0  0  0  0  0  0
    0.0577    3.3627   -2.9689 H   0  0  0  0  0  0  0  0  0  0  0  0
   -4.6235    3.0941   -3.2496 H   0  0  0  0  0  0  0  0  0  0  0  0
   -2.6356   -0.8187   -0.0144 H   0  0  0  0  0  0  0  0  0  0  0  0
   -4.0644   -2.5617    0.4993 H   0  0  0  0  0  0  0  0  0  0  0  0
   -5.4555   -2.6001   -0.5907 H   0  0  0  0  0  0  0  0  0  0  0  0
   -5.8220   -2.9900    2.0416 H   0  0  0  0  0  0  0  0  0  0  0  0
   -6.9540   -1.9084    1.2055 H   0  0  0  0  0  0  0  0  0  0  0  0
   -4.0319    0.4249    1.8072 H   0  0  0  0  0  0  0  0  0  0  0  0
   -5.6867    0.8786    1.3772 H   0  0  0  0  0  0  0  0  0  0  0  0
   -6.2191    1.4573   -2.3317 H   0  0  0  0  0  0  0  0  0  0  0  0
  1  2  2  0
  2  3  1  0
  3  4  2  0
  4  5  1  0
  5  6  2  0
  6  7  1  0
  7  8  1  0
  8  9  2  0
  9 10  1  0
 10 11  2  0
 11 12  1  0
 12 13  2  0
  6 14  1  0
 14 15  2  0
 15 16  1  0
  2 17  1  0
 17 18  2  0
 18 19  1  0
 19 20  1  0
 20 21  2  0
 21 22  1  0
 22 23  2  0
 23 24  1  0
 24 25  2  0
 24 26  1  0
 27 26  1  6
 27 28  1  0
 28 29  1  0
 29 30  1  0
 30 31  1  0
 27 32  1  0
 32 33  2  0
 32 34  1  0
 15  3  1  0
 25 17  1  0
 31 27  1  0
 13  8  1  0
 25 20  1  0
 34 23  1  0
  4 35  1  0
  5 36  1  0
  9 37  1  0
 10 38  1  0
 11 39  1  0
 12 40  1  0
 13 41  1  0
 14 42  1  0
 18 43  1  0
 19 44  1  0
 22 45  1  0
 26 46  1  0
 28 47  1  0
 28 48  1  0
 29 49  1  0
 29 50  1  0
 31 51  1  0
 31 52  1  0
 34 53  1  0
M  END
>  <mol_id>  (1) 
133412

>  <source_index>  (1) 
6

>  <layer>  (1) 
L2

>  <uniprot>  (1) 
Q06187

>  <paff>  (1) 
7.3851000000000004

>  <smiles>  (1) 
O=C(c1ccc(Oc2ccccc2)cc1Cl)c1c[nH]c2ncc3c(c12)NC1(CCOC1)C(=O)N3

$$$$
