L2:Q06187:133702
 OpenBabel09212617433D

 77 82  0  0  0  0  0  0  0  0999 V2000
   -0.2744  -28.4575   22.7126 C   0  0  0  0  0  0  0  0  0  0  0  0
    0.8381  -29.1518   22.9617 N   0  0  0  0  0  0  0  0  0  0  0  0
    1.5966  -28.3390   23.7156 N   0  0  0  0  0  0  0  0  0  0  0  0
    0.9873  -27.1285   24.0223 C   0  0  0  0  0  0  0  0  0  0  0  0
    1.3212  -26.0143   24.8343 C   0  0  0  0  0  0  0  0  0  0  0  0
    0.3932  -24.9711   24.7651 C   0  0  0  0  0  0  0  0  0  0  0  0
   -0.7279  -24.9453   24.0191 N   0  0  0  0  0  0  0  0  0  0  0  0
   -1.0582  -26.0228   23.2822 C   0  0  0  0  0  0  0  0  0  0  0  0
   -2.2125  -25.9045   22.5476 N   0  0  0  0  0  0  0  0  0  0  0  0
   -0.2167  -27.1555   23.2935 C   0  0  0  0  0  0  0  0  0  0  0  0
    2.4637  -25.8662   25.8172 C   0  0  0  0  0  0  0  0  0  0  0  0
    2.0256  -26.2746   27.2388 C   0  0  0  0  0  0  0  0  0  0  0  0
    3.2042  -26.7055   28.1266 C   0  0  0  0  0  0  0  0  0  0  0  0
    2.7376  -27.4812   29.3719 C   0  0  0  0  0  0  0  0  0  0  0  0
    3.5415  -28.7055   29.5566 N   0  0  0  0  0  0  0  0  0  0  0  0
    2.6986  -29.9266   29.5825 C   0  0  0  0  0  0  0  0  0  0  0  0
    2.0679  -30.1835   28.2099 C   0  0  0  0  0  0  0  0  0  0  0  0
    0.9060  -29.8748   27.9571 O   0  0  0  0  0  0  0  0  0  0  0  0
    2.9443  -30.7025   27.2696 N   0  0  0  0  0  0  0  0  0  0  0  0
    2.6694  -30.5427   25.8460 C   0  0  2  0  0  0  0  0  0  0  0  0
    3.3749  -31.5852   24.9871 C   0  0  0  0  0  0  0  0  0  0  0  0
    3.1394  -31.3042   23.5024 C   0  0  0  0  0  0  0  0  0  0  0  0
    3.5432  -29.8797   23.0979 C   0  0  0  0  0  0  0  0  0  0  0  0
    2.9674  -28.7651   24.0045 C   0  0  2  0  0  0  0  0  0  0  0  0
    3.1439  -29.1443   25.4660 C   0  0  0  0  0  0  0  0  0  0  0  0
   -2.5115  -26.6026   21.8894 H   0  0  0  0  0  0  0  0  0  0  0  0
   -2.6933  -25.0207   22.6267 H   0  0  0  0  0  0  0  0  0  0  0  0
    4.0101  -28.6401   30.4610 H   0  0  0  0  0  0  0  0  0  0  0  0
    3.8975  -30.8707   27.5673 H   0  0  0  0  0  0  0  0  0  0  0  0
   -3.4196  -30.2487   20.4472 C   0  0  0  0  0  0  0  0  0  0  0  0
   -3.1287  -30.7095   21.7382 C   0  0  0  0  0  0  0  0  0  0  0  0
   -2.0950  -30.1211   22.4745 C   0  0  0  0  0  0  0  0  0  0  0  0
   -1.3446  -29.0694   21.9324 C   0  0  0  0  0  0  0  0  0  0  0  0
   -1.6596  -28.5888   20.6555 C   0  0  0  0  0  0  0  0  0  0  0  0
   -2.6910  -29.1760   19.9166 C   0  0  0  0  0  0  0  0  0  0  0  0
   -5.6115  -30.0355   19.4429 N   0  0  0  0  0  0  0  0  0  0  0  0
   -4.5128  -30.8415   19.6216 C   0  0  0  0  0  0  0  0  0  0  0  0
   -4.3728  -31.9838   19.2004 O   0  0  0  0  0  0  0  0  0  0  0  0
   -5.6727  -29.1458   19.9160 H   0  0  0  0  0  0  0  0  0  0  0  0
  -10.1682  -31.9370   18.8063 C   0  0  0  0  0  0  0  0  0  0  0  0
   -8.9698  -31.1732   18.3295 C   0  0  0  0  0  0  0  0  0  0  0  0
   -8.9010  -30.6927   17.0238 C   0  0  0  0  0  0  0  0  0  0  0  0
   -7.7551  -30.0237   16.6308 C   0  0  0  0  0  0  0  0  0  0  0  0
   -6.6904  -29.8137   17.4351 N   0  0  0  0  0  0  0  0  0  0  0  0
   -6.7620  -30.2928   18.6962 C   0  0  0  0  0  0  0  0  0  0  0  0
   -7.8706  -30.9783   19.1743 C   0  0  0  0  0  0  0  0  0  0  0  0
    0.5863  -24.1381   25.3429 H   0  0  0  0  0  0  0  0  0  0  0  0
    2.7847  -24.8456   25.8295 H   0  0  0  0  0  0  0  0  0  0  0  0
    3.2636  -26.5068   25.5095 H   0  0  0  0  0  0  0  0  0  0  0  0
    1.3386  -27.0914   27.1630 H   0  0  0  0  0  0  0  0  0  0  0  0
    1.5760  -25.4176   27.6952 H   0  0  0  0  0  0  0  0  0  0  0  0
    3.7352  -25.8321   28.4430 H   0  0  0  0  0  0  0  0  0  0  0  0
    3.8312  -27.3535   27.5504 H   0  0  0  0  0  0  0  0  0  0  0  0
    1.7091  -27.7512   29.2524 H   0  0  0  0  0  0  0  0  0  0  0  0
    2.8604  -26.8565   30.2319 H   0  0  0  0  0  0  0  0  0  0  0  0
    1.9216  -29.8008   30.3073 H   0  0  0  0  0  0  0  0  0  0  0  0
    3.3153  -30.7629   29.8378 H   0  0  0  0  0  0  0  0  0  0  0  0
    1.6228  -30.6769   25.6686 H   0  0  0  0  0  0  0  0  0  0  0  0
    2.9932  -32.5557   25.2267 H   0  0  0  0  0  0  0  0  0  0  0  0
    4.4256  -31.5430   25.1849 H   0  0  0  0  0  0  0  0  0  0  0  0
    2.0995  -31.4388   23.2893 H   0  0  0  0  0  0  0  0  0  0  0  0
    3.7489  -31.9838   22.9442 H   0  0  0  0  0  0  0  0  0  0  0  0
    3.2016  -29.7070   22.0987 H   0  0  0  0  0  0  0  0  0  0  0  0
    4.6078  -29.8278   23.1922 H   0  0  0  0  0  0  0  0  0  0  0  0
    3.5433  -27.8929   23.7752 H   0  0  0  0  0  0  0  0  0  0  0  0
    2.5976  -28.4394   26.0572 H   0  0  0  0  0  0  0  0  0  0  0  0
    4.1987  -29.1344   25.6455 H   0  0  0  0  0  0  0  0  0  0  0  0
   -3.6771  -31.4829   22.1458 H   0  0  0  0  0  0  0  0  0  0  0  0
   -1.8835  -30.4644   23.4245 H   0  0  0  0  0  0  0  0  0  0  0  0
   -1.1284  -27.7982   20.2583 H   0  0  0  0  0  0  0  0  0  0  0  0
   -2.9168  -28.8175   18.9756 H   0  0  0  0  0  0  0  0  0  0  0  0
  -10.8981  -31.9795   18.0250 H   0  0  0  0  0  0  0  0  0  0  0  0
  -10.5875  -31.4464   19.6598 H   0  0  0  0  0  0  0  0  0  0  0  0
   -9.8745  -32.9303   19.0745 H   0  0  0  0  0  0  0  0  0  0  0  0
   -9.6843  -30.8320   16.3665 H   0  0  0  0  0  0  0  0  0  0  0  0
   -7.7114  -29.6634   15.6647 H   0  0  0  0  0  0  0  0  0  0  0  0
   -7.8842  -31.3398   20.1408 H   0  0  0  0  0  0  0  0  0  0  0  0
  1  2  2  0  0  0  0
  2  3  1  0  0  0  0
  3  4  1  0  0  0  0
  4  5  2  0  0  0  0
  5  6  1  0  0  0  0
  5 11  1  0  0  0  0
  6  7  2  0  0  0  0
  6 47  1  0  0  0  0
  7  8  1  0  0  0  0
  8  9  1  0  0  0  0
  8 10  2  0  0  0  0
  9 26  1  0  0  0  0
  9 27  1  0  0  0  0
 10  1  1  0  0  0  0
 10  4  1  0  0  0  0
 11 12  1  0  0  0  0
 11 48  1  0  0  0  0
 11 49  1  0  0  0  0
 12 13  1  0  0  0  0
 12 50  1  0  0  0  0
 12 51  1  0  0  0  0
 13 14  1  0  0  0  0
 13 52  1  0  0  0  0
 13 53  1  0  0  0  0
 14 15  1  0  0  0  0
 14 54  1  0  0  0  0
 14 55  1  0  0  0  0
 15 16  1  0  0  0  0
 15 28  1  0  0  0  0
 16 17  1  0  0  0  0
 16 56  1  0  0  0  0
 16 57  1  0  0  0  0
 17 18  2  0  0  0  0
 17 19  1  0  0  0  0
 19 20  1  0  0  0  0
 19 29  1  0  0  0  0
 20 21  1  0  0  0  0
 20 58  1  6  0  0  0
 21 22  1  0  0  0  0
 21 59  1  0  0  0  0
 21 60  1  0  0  0  0
 22 23  1  0  0  0  0
 22 61  1  0  0  0  0
 22 62  1  0  0  0  0
 23 24  1  0  0  0  0
 23 63  1  0  0  0  0
 23 64  1  0  0  0  0
 24 25  1  0  0  0  0
 24  3  1  0  0  0  0
 24 65  1  6  0  0  0
 25 20  1  0  0  0  0
 25 66  1  0  0  0  0
 25 67  1  0  0  0  0
 30 31  2  0  0  0  0
 31 32  1  0  0  0  0
 31 68  1  0  0  0  0
 32 33  2  0  0  0  0
 32 69  1  0  0  0  0
 33  1  1  0  0  0  0
 33 34  1  0  0  0  0
 34 35  2  0  0  0  0
 34 70  1  0  0  0  0
 35 30  1  0  0  0  0
 35 71  1  0  0  0  0
 36 37  1  0  0  0  0
 36 39  1  0  0  0  0
 37 38  2  0  0  0  0
 37 30  1  0  0  0  0
 40 41  1  0  0  0  0
 40 72  1  0  0  0  0
 40 73  1  0  0  0  0
 40 74  1  0  0  0  0
 41 42  2  0  0  0  0
 42 43  1  0  0  0  0
 42 75  1  0  0  0  0
 43 44  2  0  0  0  0
 43 76  1  0  0  0  0
 44 45  1  0  0  0  0
 45 36  1  0  0  0  0
 45 46  2  0  0  0  0
 46 41  1  0  0  0  0
 46 77  1  0  0  0  0
M  END
>  <minimizedAffinity>
-10.01742

$$$$
