L2:Q06187:133702


 46 51  0  0  0  0  0  0  0  0999 V2000
   -0.2744  -28.4575   22.7126 C   0  0  0  0  0  0  0  0  0  0  0  0
    0.8381  -29.1518   22.9617 N   0  0  0  0  0  0  0  0  0  0  0  0
    1.5966  -28.3390   23.7156 N   0  0  0  0  0  0  0  0  0  0  0  0
    0.9873  -27.1285   24.0223 C   0  0  0  0  0  0  0  0  0  0  0  0
    1.3212  -26.0143   24.8343 C   0  0  0  0  0  0  0  0  0  0  0  0
    0.3932  -24.9711   24.7651 C   0  0  0  0  0  0  0  0  0  0  0  0
   -0.7279  -24.9453   24.0191 N   0  0  0  0  0  0  0  0  0  0  0  0
   -1.0582  -26.0228   23.2822 C   0  0  0  0  0  0  0  0  0  0  0  0
   -2.2125  -25.9045   22.5476 N   0  0  0  0  0  0  0  0  0  0  0  0
   -0.2167  -27.1555   23.2935 C   0  0  0  0  0  0  0  0  0  0  0  0
    2.4637  -25.8662   25.8172 C   0  0  0  0  0  0  0  0  0  0  0  0
    2.0256  -26.2746   27.2388 C   0  0  0  0  0  0  0  0  0  0  0  0
    3.2042  -26.7055   28.1266 C   0  0  0  0  0  0  0  0  0  0  0  0
    2.7376  -27.4812   29.3719 C   0  0  0  0  0  0  0  0  0  0  0  0
    3.5415  -28.7055   29.5566 N   0  0  0  0  0  0  0  0  0  0  0  0
    2.6986  -29.9266   29.5825 C   0  0  0  0  0  0  0  0  0  0  0  0
    2.0679  -30.1835   28.2099 C   0  0  0  0  0  0  0  0  0  0  0  0
    0.9060  -29.8748   27.9571 O   0  0  0  0  0  0  0  0  0  0  0  0
    2.9443  -30.7025   27.2696 N   0  0  0  0  0  0  0  0  0  0  0  0
    2.6694  -30.5427   25.8460 C   0  0  0  0  0  0  0  0  0  0  0  0
    3.3749  -31.5852   24.9871 C   0  0  0  0  0  0  0  0  0  0  0  0
    3.1394  -31.3042   23.5024 C   0  0  0  0  0  0  0  0  0  0  0  0
    3.5432  -29.8797   23.0979 C   0  0  0  0  0  0  0  0  0  0  0  0
    2.9674  -28.7651   24.0045 C   0  0  0  0  0  0  0  0  0  0  0  0
    3.1439  -29.1443   25.4660 C   0  0  0  0  0  0  0  0  0  0  0  0
   -2.5115  -26.6026   21.8894 H   0  0  0  0  0  0  0  0  0  0  0  0
   -2.6933  -25.0207   22.6267 H   0  0  0  0  0  0  0  0  0  0  0  0
    4.0101  -28.6401   30.4610 H   0  0  0  0  0  0  0  0  0  0  0  0
    3.8975  -30.8707   27.5673 H   0  0  0  0  0  0  0  0  0  0  0  0
   -3.4196  -30.2487   20.4472 C   0  0  0  0  0  0  0  0  0  0  0  0
   -3.1287  -30.7095   21.7382 C   0  0  0  0  0  0  0  0  0  0  0  0
   -2.0950  -30.1211   22.4745 C   0  0  0  0  0  0  0  0  0  0  0  0
   -1.3446  -29.0694   21.9324 C   0  0  0  0  0  0  0  0  0  0  0  0
   -1.6596  -28.5888   20.6555 C   0  0  0  0  0  0  0  0  0  0  0  0
   -2.6910  -29.1760   19.9166 C   0  0  0  0  0  0  0  0  0  0  0  0
   -5.6115  -30.0355   19.4429 N   0  0  0  0  0  0  0  0  0  0  0  0
   -4.5128  -30.8415   19.6216 C   0  0  0  0  0  0  0  0  0  0  0  0
   -4.3728  -31.9838   19.2004 O   0  0  0  0  0  0  0  0  0  0  0  0
   -5.6727  -29.1458   19.9160 H   0  0  0  0  0  0  0  0  0  0  0  0
  -10.1682  -31.9370   18.8063 C   0  0  0  0  0  0  0  0  0  0  0  0
   -8.9698  -31.1732   18.3295 C   0  0  0  0  0  0  0  0  0  0  0  0
   -8.9010  -30.6927   17.0238 C   0  0  0  0  0  0  0  0  0  0  0  0
   -7.7551  -30.0237   16.6308 C   0  0  0  0  0  0  0  0  0  0  0  0
   -6.6904  -29.8137   17.4351 N   0  0  0  0  0  0  0  0  0  0  0  0
   -6.7620  -30.2928   18.6962 C   0  0  0  0  0  0  0  0  0  0  0  0
   -7.8706  -30.9783   19.1743 C   0  0  0  0  0  0  0  0  0  0  0  0
 40 41  1  0  0  0
 41 42  2  0  0  0
 42 43  1  0  0  0
 43 44  2  0  0  0
 44 45  1  0  0  0
 45 36  1  0  0  0
 36 37  1  0  0  0
 37 38  2  0  0  0
 37 30  1  0  0  0
 30 31  2  0  0  0
 31 32  1  0  0  0
 32 33  2  0  0  0
 33  1  1  0  0  0
  1  2  2  0  0  0
  2  3  1  0  0  0
  3  4  1  0  0  0
  4  5  2  0  0  0
  5  6  1  0  0  0
  6  7  2  0  0  0
  7  8  1  0  0  0
  8  9  1  0  0  0
  8 10  2  0  0  0
  5 11  1  0  0  0
 11 12  1  0  0  0
 12 13  1  0  0  0
 13 14  1  0  0  0
 14 15  1  0  0  0
 15 16  1  0  0  0
 16 17  1  0  0  0
 17 18  2  0  0  0
 17 19  1  0  0  0
 19 20  1  0  0  0
 20 21  1  0  0  0
 21 22  1  0  0  0
 22 23  1  0  0  0
 23 24  1  0  0  0
 24 25  1  0  0  0
 33 34  1  0  0  0
 34 35  2  0  0  0
 45 46  2  0  0  0
 46 41  1  0  0  0
 35 30  1  0  0  0
 10  1  1  0  0  0
 25 20  1  0  0  0
 24  3  1  0  0  0
 10  4  1  0  0  0
 36 39  1  0  0  0
  9 26  1  0  0  0
  9 27  1  0  0  0
 15 28  1  0  0  0
 19 29  1  0  0  0
M  END
> <minimizedAffinity>
-10.01742

$$$$
