L2:Q06187:133702
     RDKit          3D

 77 82  0  0  0  0  0  0  0  0999 V2000
   10.6778   -0.0080    2.9187 C   0  0  0  0  0  0  0  0  0  0  0  0
    9.9638    0.2671    1.6298 C   0  0  0  0  0  0  0  0  0  0  0  0
   10.6495    0.7664    0.5248 C   0  0  0  0  0  0  0  0  0  0  0  0
    9.9309    1.0327   -0.6275 C   0  0  0  0  0  0  0  0  0  0  0  0
    8.5983    0.8460   -0.7460 N   0  0  0  0  0  0  0  0  0  0  0  0
    7.9402    0.3718    0.3343 C   0  0  0  0  0  0  0  0  0  0  0  0
    6.5699    0.2241    0.1160 N   0  0  0  0  0  0  0  0  0  0  0  0
    5.6162   -0.2603    0.9789 C   0  0  0  0  0  0  0  0  0  0  0  0
    5.8141   -0.7209    2.0971 O   0  0  0  0  0  0  0  0  0  0  0  0
    4.2192   -0.2439    0.4533 C   0  0  0  0  0  0  0  0  0  0  0  0
    3.7694    0.7433   -0.4337 C   0  0  0  0  0  0  0  0  0  0  0  0
    2.4501    0.7178   -0.8982 C   0  0  0  0  0  0  0  0  0  0  0  0
    1.5687   -0.2888   -0.4824 C   0  0  0  0  0  0  0  0  0  0  0  0
    0.1925   -0.3007   -0.9665 C   0  0  0  0  0  0  0  0  0  0  0  0
   -0.5734    0.7797   -0.7990 N   0  0  0  0  0  0  0  0  0  0  0  0
   -1.7689    0.4441   -1.3114 N   0  0  0  0  0  0  0  0  0  0  0  0
   -1.8337   -0.8651   -1.7723 C   0  0  0  0  0  0  0  0  0  0  0  0
   -2.8587   -1.6959   -2.2932 C   0  0  0  0  0  0  0  0  0  0  0  0
   -2.4085   -2.9561   -2.6976 C   0  0  0  0  0  0  0  0  0  0  0  0
   -1.1418   -3.4103   -2.6392 N   0  0  0  0  0  0  0  0  0  0  0  0
   -0.1823   -2.6302   -2.1064 C   0  0  0  0  0  0  0  0  0  0  0  0
    1.0800   -3.1711   -2.0953 N   0  0  0  0  0  0  0  0  0  0  0  0
   -0.5179   -1.3447   -1.6309 C   0  0  0  0  0  0  0  0  0  0  0  0
   -4.3486   -1.4338   -2.3609 C   0  0  0  0  0  0  0  0  0  0  0  0
   -5.0654   -1.9959   -1.1159 C   0  0  0  0  0  0  0  0  0  0  0  0
   -6.4013   -1.2924   -0.8271 C   0  0  0  0  0  0  0  0  0  0  0  0
   -6.9006   -1.5630    0.6039 C   0  0  0  0  0  0  0  0  0  0  0  0
   -7.3260   -0.3083    1.2551 N   0  0  0  0  0  0  0  0  0  0  0  0
   -6.5889   -0.0589    2.5187 C   0  0  0  0  0  0  0  0  0  0  0  0
   -5.1105    0.2315    2.2398 C   0  0  0  0  0  0  0  0  0  0  0  0
   -4.2403   -0.6253    2.3729 O   0  0  0  0  0  0  0  0  0  0  0  0
   -4.8645    1.5021    1.7433 N   0  0  0  0  0  0  0  0  0  0  0  0
   -3.6491    1.7678    0.9817 C   0  0  2  0  0  0  0  0  0  0  0  0
   -3.2607    3.2414    0.9835 C   0  0  0  0  0  0  0  0  0  0  0  0
   -2.0464    3.4763    0.0840 C   0  0  0  0  0  0  0  0  0  0  0  0
   -2.2576    2.9550   -1.3441 C   0  0  0  0  0  0  0  0  0  0  0  0
   -2.7772    1.4995   -1.4282 C   0  0  2  0  0  0  0  0  0  0  0  0
   -3.9188    1.3000   -0.4443 C   0  0  0  0  0  0  0  0  0  0  0  0
    2.0113   -1.2543    0.4301 C   0  0  0  0  0  0  0  0  0  0  0  0
    3.3297   -1.2324    0.8947 C   0  0  0  0  0  0  0  0  0  0  0  0
    8.5798    0.0804    1.5317 C   0  0  0  0  0  0  0  0  0  0  0  0
   10.6395    0.8751    3.5638 H   0  0  0  0  0  0  0  0  0  0  0  0
   11.7262   -0.2675    2.7380 H   0  0  0  0  0  0  0  0  0  0  0  0
   10.2205   -0.8525    3.4448 H   0  0  0  0  0  0  0  0  0  0  0  0
   11.7189    0.9457    0.5548 H   0  0  0  0  0  0  0  0  0  0  0  0
   10.4243    1.4188   -1.5149 H   0  0  0  0  0  0  0  0  0  0  0  0
    6.3178    0.4888   -0.8250 H   0  0  0  0  0  0  0  0  0  0  0  0
    4.4147    1.5588   -0.7484 H   0  0  0  0  0  0  0  0  0  0  0  0
    2.1024    1.4960   -1.5754 H   0  0  0  0  0  0  0  0  0  0  0  0
   -3.1099   -3.6852   -3.1007 H   0  0  0  0  0  0  0  0  0  0  0  0
    1.8914   -2.6510   -1.8107 H   0  0  0  0  0  0  0  0  0  0  0  0
    1.1643   -4.0944   -2.4940 H   0  0  0  0  0  0  0  0  0  0  0  0
   -4.5337   -0.3662   -2.4899 H   0  0  0  0  0  0  0  0  0  0  0  0
   -4.7670   -1.9015   -3.2617 H   0  0  0  0  0  0  0  0  0  0  0  0
   -4.4109   -1.9012   -0.2403 H   0  0  0  0  0  0  0  0  0  0  0  0
   -5.2379   -3.0722   -1.2429 H   0  0  0  0  0  0  0  0  0  0  0  0
   -7.1543   -1.6292   -1.5503 H   0  0  0  0  0  0  0  0  0  0  0  0
   -6.2954   -0.2144   -0.9912 H   0  0  0  0  0  0  0  0  0  0  0  0
   -7.7710   -2.2287    0.5455 H   0  0  0  0  0  0  0  0  0  0  0  0
   -6.1587   -2.1091    1.1972 H   0  0  0  0  0  0  0  0  0  0  0  0
   -8.3148   -0.3970    1.4921 H   0  0  0  0  0  0  0  0  0  0  0  0
   -7.0257    0.8149    3.0149 H   0  0  0  0  0  0  0  0  0  0  0  0
   -6.6757   -0.9063    3.2075 H   0  0  0  0  0  0  0  0  0  0  0  0
   -5.6618    2.1143    1.6203 H   0  0  0  0  0  0  0  0  0  0  0  0
   -2.8320    1.1768    1.4136 H   0  0  0  0  0  0  0  0  0  0  0  0
   -4.1000    3.8569    0.6349 H   0  0  0  0  0  0  0  0  0  0  0  0
   -3.0360    3.5708    2.0047 H   0  0  0  0  0  0  0  0  0  0  0  0
   -1.8263    4.5496    0.0462 H   0  0  0  0  0  0  0  0  0  0  0  0
   -1.1688    2.9971    0.5322 H   0  0  0  0  0  0  0  0  0  0  0  0
   -3.0036    3.6037   -1.8233 H   0  0  0  0  0  0  0  0  0  0  0  0
   -1.3344    3.0759   -1.9236 H   0  0  0  0  0  0  0  0  0  0  0  0
   -3.1615    1.3752   -2.4492 H   0  0  0  0  0  0  0  0  0  0  0  0
   -4.1741    0.2497   -0.3826 H   0  0  0  0  0  0  0  0  0  0  0  0
   -4.8080    1.8162   -0.8331 H   0  0  0  0  0  0  0  0  0  0  0  0
    1.3302   -2.0219    0.7945 H   0  0  0  0  0  0  0  0  0  0  0  0
    3.6589   -1.9860    1.6083 H   0  0  0  0  0  0  0  0  0  0  0  0
    8.0320   -0.2866    2.3919 H   0  0  0  0  0  0  0  0  0  0  0  0
  1  2  1  0
  2  3  2  0
  3  4  1  0
  4  5  2  0
  5  6  1  0
  6  7  1  0
  7  8  1  0
  8  9  2  0
  8 10  1  0
 10 11  2  0
 11 12  1  0
 12 13  2  0
 13 14  1  0
 14 15  2  0
 15 16  1  0
 16 17  1  0
 17 18  2  0
 18 19  1  0
 19 20  2  0
 20 21  1  0
 21 22  1  0
 21 23  2  0
 18 24  1  0
 24 25  1  0
 25 26  1  0
 26 27  1  0
 27 28  1  0
 28 29  1  0
 29 30  1  0
 30 31  2  0
 30 32  1  0
 32 33  1  0
 33 34  1  0
 34 35  1  0
 35 36  1  0
 36 37  1  0
 37 38  1  0
 13 39  1  0
 39 40  2  0
  6 41  2  0
 41  2  1  0
 40 10  1  0
 23 14  1  0
 38 33  1  0
 37 16  1  0
 23 17  1  0
  1 42  1  0
  1 43  1  0
  1 44  1  0
  3 45  1  0
  4 46  1  0
  7 47  1  0
 11 48  1  0
 12 49  1  0
 19 50  1  0
 22 51  1  0
 22 52  1  0
 24 53  1  0
 24 54  1  0
 25 55  1  0
 25 56  1  0
 26 57  1  0
 26 58  1  0
 27 59  1  0
 27 60  1  0
 28 61  1  0
 29 62  1  0
 29 63  1  0
 32 64  1  0
 33 65  1  1
 34 66  1  0
 34 67  1  0
 35 68  1  0
 35 69  1  0
 36 70  1  0
 36 71  1  0
 37 72  1  6
 38 73  1  0
 38 74  1  0
 39 75  1  0
 40 76  1  0
 41 77  1  0
M  END
>  <mol_id>  (1) 
133702

>  <source_index>  (1) 
7

>  <layer>  (1) 
L2

>  <uniprot>  (1) 
Q06187

>  <paff>  (1) 
8.3010000000000002

>  <smiles>  (1) 
Cc1ccnc(NC(=O)c2ccc(-c3nn4c5c(cnc(N)c35)CCCCNCC(=O)N[C@@H]3CCC[C@@H]4C3)cc2)c1

$$$$
