L2:Q06187:140872


 46 52  0  0  0  0  0  0  0  0999 V2000
   -2.3973  -28.3915   21.5315 C   0  0  0  0  0  0  0  0  0  0  0  0
   -3.0696  -28.0225   20.3654 C   0  0  0  0  0  0  0  0  0  0  0  0
   -3.8937  -28.9323   19.6958 C   0  0  0  0  0  0  0  0  0  0  0  0
   -4.0734  -30.2469   20.1667 C   0  0  0  0  0  0  0  0  0  0  0  0
   -3.3836  -30.6330   21.3351 C   0  0  0  0  0  0  0  0  0  0  0  0
   -2.5604  -29.7024   22.0003 C   0  0  0  0  0  0  0  0  0  0  0  0
   -3.4893  -32.0316   21.8991 C   0  0  0  0  0  0  0  0  0  0  0  0
   -2.8923  -33.0863   20.9691 C   0  0  0  0  0  0  0  0  0  0  0  0
   -3.8216  -33.5049   19.8324 C   0  0  0  0  0  0  0  0  0  0  0  0
   -4.1671  -32.3993   18.8341 C   0  0  0  0  0  0  0  0  0  0  0  0
   -4.9779  -31.2418   19.4419 C   0  0  0  0  0  0  0  0  0  0  0  0
    1.6979  -28.6556   23.2111 C   0  0  0  0  0  0  0  0  0  0  0  0
    1.7488  -27.4224   23.6705 N   0  0  0  0  0  0  0  0  0  0  0  0
    0.5410  -26.8671   23.3550 C   0  0  0  0  0  0  0  0  0  0  0  0
    0.1603  -25.6065   23.6532 N   0  0  0  0  0  0  0  0  0  0  0  0
   -1.0858  -25.2901   23.2434 C   0  0  0  0  0  0  0  0  0  0  0  0
   -1.9567  -26.1356   22.5638 C   0  0  0  0  0  0  0  0  0  0  0  0
   -1.5560  -27.4381   22.2467 C   0  0  0  0  0  0  0  0  0  0  0  0
   -0.2689  -27.7680   22.6792 C   0  0  0  0  0  0  0  0  0  0  0  0
    0.4903  -28.9065   22.6102 N   0  0  0  0  0  0  0  0  0  0  0  0
    0.2042  -29.7805   22.1951 H   0  0  0  0  0  0  0  0  0  0  0  0
    2.0903  -31.0309   25.4477 C   0  0  0  0  0  0  0  0  0  0  0  0
    2.9599  -30.6865   24.2917 C   0  0  0  0  0  0  0  0  0  0  0  0
    2.8429  -29.6964   23.3358 C   0  0  0  0  0  0  0  0  0  0  0  0
    3.9724  -29.8383   22.5154 C   0  0  0  0  0  0  0  0  0  0  0  0
    4.7530  -30.8475   22.9002 N   0  0  0  0  0  0  0  0  0  0  0  0
    4.1082  -31.3762   23.9622 N   0  0  0  0  0  0  0  0  0  0  0  0
    4.6620  -32.5525   24.6378 C   0  0  0  0  0  0  0  0  0  0  0  0
    5.3523  -33.5442   23.6878 C   0  0  0  0  0  0  0  0  0  0  0  0
    6.7984  -33.1686   23.3908 C   0  0  0  0  0  0  0  0  0  0  0  0
    7.5162  -32.9380   24.6025 O   0  0  0  0  0  0  0  0  0  0  0  0
    6.9840  -31.8286   25.3236 C   0  0  0  0  0  0  0  0  0  0  0  0
    5.5758  -32.1489   25.7999 C   0  0  0  0  0  0  0  0  0  0  0  0
   -5.7629  -30.6143   18.3893 N   0  0  0  0  0  0  0  0  0  0  0  0
   -6.9741  -31.1152   17.9435 C   0  0  0  0  0  0  0  0  0  0  0  0
   -7.4459  -32.1669   18.3703 O   0  0  0  0  0  0  0  0  0  0  0  0
   -5.4465  -29.7325   17.9992 H   0  0  0  0  0  0  0  0  0  0  0  0
   -7.6138  -30.2828   16.9447 C   0  0  0  0  0  0  0  0  0  0  0  0
   -8.5506  -30.6655   16.0970 N   0  0  0  0  0  0  0  0  0  0  0  0
   -8.8558  -29.5576   15.3347 N   0  0  0  0  0  0  0  0  0  0  0  0
   -8.0869  -28.5779   15.7677 C   0  0  0  0  0  0  0  0  0  0  0  0
   -7.2654  -28.9669   16.7953 O   0  0  0  0  0  0  0  0  0  0  0  0
   -7.9910  -27.1525   15.3070 C   0  0  0  0  0  0  0  0  0  0  0  0
   -6.7884  -26.4600   15.9728 C   0  0  0  0  0  0  0  0  0  0  0  0
   -9.2729  -26.3945   15.6900 C   0  0  0  0  0  0  0  0  0  0  0  0
   -7.8039  -27.1101   13.7812 C   0  0  0  0  0  0  0  0  0  0  0  0
 22 23  1  0  0  0
 23 24  2  0  0  0
 24 12  1  0  0  0
 12 13  2  0  0  0
 13 14  1  0  0  0
 14 15  2  0  0  0
 15 16  1  0  0  0
 16 17  2  0  0  0
 17 18  1  0  0  0
 18  1  1  0  0  0
  1  2  2  0  0  0
  2  3  1  0  0  0
  3  4  2  0  0  0
  4  5  1  0  0  0
  5  6  2  0  0  0
  5  7  1  0  0  0
  7  8  1  0  0  0
  8  9  1  0  0  0
  9 10  1  0  0  0
 10 11  1  0  0  0
 11 34  1  0  0  0
 34 35  1  0  0  0
 35 36  2  0  0  0
 35 38  1  0  0  0
 38 39  2  0  0  0
 39 40  1  0  0  0
 40 41  2  0  0  0
 41 43  1  0  0  0
 43 44  1  0  0  0
 43 45  1  0  0  0
 43 46  1  0  0  0
 41 42  1  0  0  0
 18 19  2  0  0  0
 19 20  1  0  0  0
 24 25  1  0  0  0
 25 26  2  0  0  0
 26 27  1  0  0  0
 27 28  1  0  0  0
 28 29  1  0  0  0
 29 30  1  0  0  0
 30 31  1  0  0  0
 31 32  1  0  0  0
 32 33  1  0  0  0
 27 23  1  0  0  0
 33 28  1  0  0  0
 20 12  1  0  0  0
 19 14  1  0  0  0
  6  1  1  0  0  0
 42 38  1  0  0  0
 11  4  1  0  0  0
 34 37  1  0  0  0
 20 21  1  0  0  0
M  END
> <minimizedAffinity>
-11.36658

$$$$
