L2:Q06187:140872
     RDKit          3D

 82 88  0  0  0  0  0  0  0  0999 V2000
   -6.8893    0.4001    2.3596 C   0  0  0  0  0  0  0  0  0  0  0  0
   -5.9178    1.0055    1.4106 C   0  0  0  0  0  0  0  0  0  0  0  0
   -4.6736    0.5748    0.9930 C   0  0  0  0  0  0  0  0  0  0  0  0
   -3.9304   -0.7072    1.4555 C   0  0  0  0  0  0  0  0  0  0  0  0
   -4.3918   -1.5665    2.3404 N   0  0  0  0  0  0  0  0  0  0  0  0
   -3.4263   -2.5267    2.4520 C   0  0  0  0  0  0  0  0  0  0  0  0
   -3.4857   -3.6017    3.2669 N   0  0  0  0  0  0  0  0  0  0  0  0
   -2.4038   -4.4058    3.2067 C   0  0  0  0  0  0  0  0  0  0  0  0
   -1.2902   -4.2101    2.3963 C   0  0  0  0  0  0  0  0  0  0  0  0
   -1.2356   -3.1010    1.5450 C   0  0  0  0  0  0  0  0  0  0  0  0
   -0.1139   -2.8183    0.6561 C   0  0  0  0  0  0  0  0  0  0  0  0
    1.1461   -2.5038    1.1674 C   0  0  0  0  0  0  0  0  0  0  0  0
    2.2128   -2.2104    0.3122 C   0  0  0  0  0  0  0  0  0  0  0  0
    2.0591   -2.2237   -1.0872 C   0  0  0  0  0  0  0  0  0  0  0  0
    0.7930   -2.5577   -1.6122 C   0  0  0  0  0  0  0  0  0  0  0  0
   -0.2726   -2.8464   -0.7363 C   0  0  0  0  0  0  0  0  0  0  0  0
    0.5395   -2.6284   -3.1009 C   0  0  0  0  0  0  0  0  0  0  0  0
    1.3271   -3.7488   -3.7779 C   0  0  0  0  0  0  0  0  0  0  0  0
    2.7821   -3.3911   -4.0712 C   0  0  0  0  0  0  0  0  0  0  0  0
    3.6489   -3.1302   -2.8388 C   0  0  0  0  0  0  0  0  0  0  0  0
    3.2200   -1.8974   -2.0247 C   0  0  2  0  0  0  0  0  0  0  0  0
    4.3786   -1.3771   -1.3141 N   0  0  0  0  0  0  0  0  0  0  0  0
    4.6760   -0.0275   -1.2310 C   0  0  0  0  0  0  0  0  0  0  0  0
    4.0071    0.8281   -1.8066 O   0  0  0  0  0  0  0  0  0  0  0  0
    5.8326    0.2620   -0.4075 C   0  0  0  0  0  0  0  0  0  0  0  0
    6.5636   -0.6222    0.2456 N   0  0  0  0  0  0  0  0  0  0  0  0
    7.5451    0.0953    0.8964 N   0  0  0  0  0  0  0  0  0  0  0  0
    7.3465    1.3640    0.5971 C   0  0  0  0  0  0  0  0  0  0  0  0
    8.1078    2.5854    1.0236 C   0  0  0  0  0  0  0  0  0  0  0  0
    9.2756    2.1876    1.9438 C   0  0  0  0  0  0  0  0  0  0  0  0
    7.1757    3.5381    1.7905 C   0  0  0  0  0  0  0  0  0  0  0  0
    8.6744    3.3035   -0.2126 C   0  0  0  0  0  0  0  0  0  0  0  0
    6.2688    1.5481   -0.2316 O   0  0  0  0  0  0  0  0  0  0  0  0
   -2.3523   -2.2639    1.6144 C   0  0  0  0  0  0  0  0  0  0  0  0
   -2.6951   -1.0897    0.9972 N   0  0  0  0  0  0  0  0  0  0  0  0
   -4.2380    1.5390    0.0714 C   0  0  0  0  0  0  0  0  0  0  0  0
   -5.1226    2.5230   -0.0868 N   0  0  0  0  0  0  0  0  0  0  0  0
   -6.1255    2.2034    0.7588 N   0  0  0  0  0  0  0  0  0  0  0  0
   -7.2812    3.0949    0.8868 C   0  0  0  0  0  0  0  0  0  0  0  0
   -6.9136    4.5873    0.8971 C   0  0  0  0  0  0  0  0  0  0  0  0
   -6.7584    5.1671   -0.5030 C   0  0  0  0  0  0  0  0  0  0  0  0
   -7.9004    4.8614   -1.3023 O   0  0  0  0  0  0  0  0  0  0  0  0
   -8.0436    3.4556   -1.4953 C   0  0  0  0  0  0  0  0  0  0  0  0
   -8.3477    2.7796   -0.1675 C   0  0  0  0  0  0  0  0  0  0  0  0
   -7.9229    0.5975    2.0593 H   0  0  0  0  0  0  0  0  0  0  0  0
   -6.7367    0.8033    3.3655 H   0  0  0  0  0  0  0  0  0  0  0  0
   -6.7843   -0.6871    2.4052 H   0  0  0  0  0  0  0  0  0  0  0  0
   -2.4517   -5.2703    3.8654 H   0  0  0  0  0  0  0  0  0  0  0  0
   -0.4749   -4.9275    2.4234 H   0  0  0  0  0  0  0  0  0  0  0  0
    1.3085   -2.4694    2.2433 H   0  0  0  0  0  0  0  0  0  0  0  0
    3.1675   -1.9657    0.7714 H   0  0  0  0  0  0  0  0  0  0  0  0
   -1.2450   -3.1154   -1.1491 H   0  0  0  0  0  0  0  0  0  0  0  0
   -0.5283   -2.8114   -3.2776 H   0  0  0  0  0  0  0  0  0  0  0  0
    0.7498   -1.6557   -3.5614 H   0  0  0  0  0  0  0  0  0  0  0  0
    1.2799   -4.6707   -3.1850 H   0  0  0  0  0  0  0  0  0  0  0  0
    0.8452   -3.9700   -4.7387 H   0  0  0  0  0  0  0  0  0  0  0  0
    2.8174   -2.5169   -4.7335 H   0  0  0  0  0  0  0  0  0  0  0  0
    3.2299   -4.2194   -4.6345 H   0  0  0  0  0  0  0  0  0  0  0  0
    3.6788   -4.0255   -2.2040 H   0  0  0  0  0  0  0  0  0  0  0  0
    4.6751   -2.9814   -3.2022 H   0  0  0  0  0  0  0  0  0  0  0  0
    2.8870   -1.1068   -2.7079 H   0  0  0  0  0  0  0  0  0  0  0  0
    4.9696   -2.0214   -0.7989 H   0  0  0  0  0  0  0  0  0  0  0  0
    9.9722    1.5100    1.4357 H   0  0  0  0  0  0  0  0  0  0  0  0
    9.8442    3.0674    2.2661 H   0  0  0  0  0  0  0  0  0  0  0  0
    8.9180    1.6752    2.8449 H   0  0  0  0  0  0  0  0  0  0  0  0
    7.7144    4.4290    2.1330 H   0  0  0  0  0  0  0  0  0  0  0  0
    6.3419    3.8767    1.1644 H   0  0  0  0  0  0  0  0  0  0  0  0
    6.7442    3.0482    2.6716 H   0  0  0  0  0  0  0  0  0  0  0  0
    9.2548    4.1878    0.0743 H   0  0  0  0  0  0  0  0  0  0  0  0
    7.8760    3.6367   -0.8861 H   0  0  0  0  0  0  0  0  0  0  0  0
    9.3331    2.6430   -0.7889 H   0  0  0  0  0  0  0  0  0  0  0  0
   -2.1300   -0.5902    0.3269 H   0  0  0  0  0  0  0  0  0  0  0  0
   -3.3179    1.5776   -0.4954 H   0  0  0  0  0  0  0  0  0  0  0  0
   -7.6995    2.8733    1.8766 H   0  0  0  0  0  0  0  0  0  0  0  0
   -6.0118    4.7757    1.4908 H   0  0  0  0  0  0  0  0  0  0  0  0
   -7.7375    5.1230    1.3873 H   0  0  0  0  0  0  0  0  0  0  0  0
   -5.8521    4.8196   -1.0085 H   0  0  0  0  0  0  0  0  0  0  0  0
   -6.6855    6.2579   -0.4385 H   0  0  0  0  0  0  0  0  0  0  0  0
   -7.1469    3.0482   -1.9750 H   0  0  0  0  0  0  0  0  0  0  0  0
   -8.8795    3.3012   -2.1853 H   0  0  0  0  0  0  0  0  0  0  0  0
   -9.3068    3.1666    0.2007 H   0  0  0  0  0  0  0  0  0  0  0  0
   -8.4672    1.6999   -0.3120 H   0  0  0  0  0  0  0  0  0  0  0  0
  1  2  1  0
  2  3  2  0
  3  4  1  0
  4  5  2  0
  5  6  1  0
  6  7  2  0
  7  8  1  0
  8  9  2  0
  9 10  1  0
 10 11  1  0
 11 12  2  0
 12 13  1  0
 13 14  2  0
 14 15  1  0
 15 16  2  0
 15 17  1  0
 17 18  1  0
 18 19  1  0
 19 20  1  0
 20 21  1  0
 21 22  1  0
 22 23  1  0
 23 24  2  0
 23 25  1  0
 25 26  2  0
 26 27  1  0
 27 28  2  0
 28 29  1  0
 29 30  1  0
 29 31  1  0
 29 32  1  0
 28 33  1  0
 10 34  2  0
 34 35  1  0
  3 36  1  0
 36 37  2  0
 37 38  1  0
 38 39  1  0
 39 40  1  0
 40 41  1  0
 41 42  1  0
 42 43  1  0
 43 44  1  0
 38  2  1  0
 44 39  1  0
 35  4  1  0
 34  6  1  0
 16 11  1  0
 33 25  1  0
 21 14  1  0
  1 45  1  0
  1 46  1  0
  1 47  1  0
  8 48  1  0
  9 49  1  0
 12 50  1  0
 13 51  1  0
 16 52  1  0
 17 53  1  0
 17 54  1  0
 18 55  1  0
 18 56  1  0
 19 57  1  0
 19 58  1  0
 20 59  1  0
 20 60  1  0
 21 61  1  6
 22 62  1  0
 30 63  1  0
 30 64  1  0
 30 65  1  0
 31 66  1  0
 31 67  1  0
 31 68  1  0
 32 69  1  0
 32 70  1  0
 32 71  1  0
 35 72  1  0
 36 73  1  0
 39 74  1  0
 40 75  1  0
 40 76  1  0
 41 77  1  0
 41 78  1  0
 43 79  1  0
 43 80  1  0
 44 81  1  0
 44 82  1  0
M  END
>  <mol_id>  (1) 
140872

>  <source_index>  (1) 
8

>  <layer>  (1) 
L2

>  <uniprot>  (1) 
Q06187

>  <paff>  (1) 
8.2596000000000007

>  <smiles>  (1) 
Cc1c(-c2nc3nccc(-c4ccc5c(c4)CCCC[C@@H]5NC(=O)c4nnc(C(C)(C)C)o4)c3[nH]2)cnn1C1CCOCC1

$$$$
