L2:Q06187:140872
 OpenBabel09212617433D

 82 88  0  0  0  0  0  0  0  0999 V2000
   -2.3973  -28.3915   21.5315 C   0  0  0  0  0  0  0  0  0  0  0  0
   -3.0696  -28.0225   20.3654 C   0  0  0  0  0  0  0  0  0  0  0  0
   -3.8937  -28.9323   19.6958 C   0  0  0  0  0  0  0  0  0  0  0  0
   -4.0734  -30.2469   20.1667 C   0  0  0  0  0  0  0  0  0  0  0  0
   -3.3836  -30.6330   21.3351 C   0  0  0  0  0  0  0  0  0  0  0  0
   -2.5604  -29.7024   22.0003 C   0  0  0  0  0  0  0  0  0  0  0  0
   -3.4893  -32.0316   21.8991 C   0  0  0  0  0  0  0  0  0  0  0  0
   -2.8923  -33.0863   20.9691 C   0  0  0  0  0  0  0  0  0  0  0  0
   -3.8216  -33.5049   19.8324 C   0  0  0  0  0  0  0  0  0  0  0  0
   -4.1671  -32.3993   18.8341 C   0  0  0  0  0  0  0  0  0  0  0  0
   -4.9779  -31.2418   19.4419 C   0  0  2  0  0  0  0  0  0  0  0  0
    1.6979  -28.6556   23.2111 C   0  0  0  0  0  0  0  0  0  0  0  0
    1.7488  -27.4224   23.6705 N   0  0  0  0  0  0  0  0  0  0  0  0
    0.5410  -26.8671   23.3550 C   0  0  0  0  0  0  0  0  0  0  0  0
    0.1603  -25.6065   23.6532 N   0  0  0  0  0  0  0  0  0  0  0  0
   -1.0858  -25.2901   23.2434 C   0  0  0  0  0  0  0  0  0  0  0  0
   -1.9567  -26.1356   22.5638 C   0  0  0  0  0  0  0  0  0  0  0  0
   -1.5560  -27.4381   22.2467 C   0  0  0  0  0  0  0  0  0  0  0  0
   -0.2689  -27.7680   22.6792 C   0  0  0  0  0  0  0  0  0  0  0  0
    0.4903  -28.9065   22.6102 N   0  0  0  0  0  0  0  0  0  0  0  0
    0.2042  -29.7805   22.1951 H   0  0  0  0  0  0  0  0  0  0  0  0
    2.0903  -31.0309   25.4477 C   0  0  0  0  0  0  0  0  0  0  0  0
    2.9599  -30.6865   24.2917 C   0  0  0  0  0  0  0  0  0  0  0  0
    2.8429  -29.6964   23.3358 C   0  0  0  0  0  0  0  0  0  0  0  0
    3.9724  -29.8383   22.5154 C   0  0  0  0  0  0  0  0  0  0  0  0
    4.7530  -30.8475   22.9002 N   0  0  0  0  0  0  0  0  0  0  0  0
    4.1082  -31.3762   23.9622 N   0  0  0  0  0  0  0  0  0  0  0  0
    4.6620  -32.5525   24.6378 C   0  0  0  0  0  0  0  0  0  0  0  0
    5.3523  -33.5442   23.6878 C   0  0  0  0  0  0  0  0  0  0  0  0
    6.7984  -33.1686   23.3908 C   0  0  0  0  0  0  0  0  0  0  0  0
    7.5162  -32.9380   24.6025 O   0  0  0  0  0  0  0  0  0  0  0  0
    6.9840  -31.8286   25.3236 C   0  0  0  0  0  0  0  0  0  0  0  0
    5.5758  -32.1489   25.7999 C   0  0  0  0  0  0  0  0  0  0  0  0
   -5.7629  -30.6143   18.3893 N   0  0  0  0  0  0  0  0  0  0  0  0
   -6.9741  -31.1152   17.9435 C   0  0  0  0  0  0  0  0  0  0  0  0
   -7.4459  -32.1669   18.3703 O   0  0  0  0  0  0  0  0  0  0  0  0
   -5.4465  -29.7325   17.9992 H   0  0  0  0  0  0  0  0  0  0  0  0
   -7.6138  -30.2828   16.9447 C   0  0  0  0  0  0  0  0  0  0  0  0
   -8.5506  -30.6655   16.0970 N   0  0  0  0  0  0  0  0  0  0  0  0
   -8.8558  -29.5576   15.3347 N   0  0  0  0  0  0  0  0  0  0  0  0
   -8.0869  -28.5779   15.7677 C   0  0  0  0  0  0  0  0  0  0  0  0
   -7.2654  -28.9669   16.7953 O   0  0  0  0  0  0  0  0  0  0  0  0
   -7.9910  -27.1525   15.3070 C   0  0  0  0  0  0  0  0  0  0  0  0
   -6.7884  -26.4600   15.9728 C   0  0  0  0  0  0  0  0  0  0  0  0
   -9.2729  -26.3945   15.6900 C   0  0  0  0  0  0  0  0  0  0  0  0
   -7.8039  -27.1101   13.7812 C   0  0  0  0  0  0  0  0  0  0  0  0
   -2.9571  -27.0667   19.9929 H   0  0  0  0  0  0  0  0  0  0  0  0
   -4.3813  -28.6333   18.8368 H   0  0  0  0  0  0  0  0  0  0  0  0
   -2.0638  -29.9943   22.8566 H   0  0  0  0  0  0  0  0  0  0  0  0
   -4.5225  -32.2600   22.0579 H   0  0  0  0  0  0  0  0  0  0  0  0
   -2.9350  -32.0550   22.8141 H   0  0  0  0  0  0  0  0  0  0  0  0
   -2.6581  -33.9539   21.5498 H   0  0  0  0  0  0  0  0  0  0  0  0
   -2.0265  -32.6486   20.5177 H   0  0  0  0  0  0  0  0  0  0  0  0
   -4.7346  -33.8583   20.2642 H   0  0  0  0  0  0  0  0  0  0  0  0
   -3.2942  -34.2524   19.2773 H   0  0  0  0  0  0  0  0  0  0  0  0
   -4.7389  -32.8301   18.0389 H   0  0  0  0  0  0  0  0  0  0  0  0
   -3.2402  -31.9853   18.4960 H   0  0  0  0  0  0  0  0  0  0  0  0
   -5.6470  -31.6227   20.1849 H   0  0  0  0  0  0  0  0  0  0  0  0
   -1.4223  -24.3372   23.4525 H   0  0  0  0  0  0  0  0  0  0  0  0
   -2.8957  -25.8030   22.2943 H   0  0  0  0  0  0  0  0  0  0  0  0
    1.2662  -30.3497   25.4895 H   0  0  0  0  0  0  0  0  0  0  0  0
    2.6565  -30.9617   26.3530 H   0  0  0  0  0  0  0  0  0  0  0  0
    1.7225  -32.0291   25.3325 H   0  0  0  0  0  0  0  0  0  0  0  0
    4.1754  -29.2305   21.7064 H   0  0  0  0  0  0  0  0  0  0  0  0
    3.8236  -33.0813   25.0408 H   0  0  0  0  0  0  0  0  0  0  0  0
    4.8094  -33.5689   22.7661 H   0  0  0  0  0  0  0  0  0  0  0  0
    5.3602  -34.4995   24.1698 H   0  0  0  0  0  0  0  0  0  0  0  0
    6.8158  -32.2787   22.7969 H   0  0  0  0  0  0  0  0  0  0  0  0
    7.2629  -33.9750   22.8627 H   0  0  0  0  0  0  0  0  0  0  0  0
    6.9560  -30.9706   24.6848 H   0  0  0  0  0  0  0  0  0  0  0  0
    7.6057  -31.6282   26.1711 H   0  0  0  0  0  0  0  0  0  0  0  0
    5.1665  -31.2838   26.2784 H   0  0  0  0  0  0  0  0  0  0  0  0
    5.6333  -32.9726   26.4804 H   0  0  0  0  0  0  0  0  0  0  0  0
   -6.9072  -26.4831   17.0359 H   0  0  0  0  0  0  0  0  0  0  0  0
   -6.7339  -25.4439   15.6420 H   0  0  0  0  0  0  0  0  0  0  0  0
   -5.8881  -26.9716   15.7033 H   0  0  0  0  0  0  0  0  0  0  0  0
   -9.4015  -26.4250   16.7518 H   0  0  0  0  0  0  0  0  0  0  0  0
  -10.1145  -26.8544   15.2154 H   0  0  0  0  0  0  0  0  0  0  0  0
   -9.1947  -25.3767   15.3693 H   0  0  0  0  0  0  0  0  0  0  0  0
   -6.9116  -27.6379   13.5165 H   0  0  0  0  0  0  0  0  0  0  0  0
   -7.7251  -26.0926   13.4597 H   0  0  0  0  0  0  0  0  0  0  0  0
   -8.6448  -27.5703   13.3058 H   0  0  0  0  0  0  0  0  0  0  0  0
  1  2  2  0  0  0  0
  2  3  1  0  0  0  0
  2 47  1  0  0  0  0
  3  4  2  0  0  0  0
  3 48  1  0  0  0  0
  4  5  1  0  0  0  0
  5  6  2  0  0  0  0
  5  7  1  0  0  0  0
  6  1  1  0  0  0  0
  6 49  1  0  0  0  0
  7  8  1  0  0  0  0
  7 50  1  0  0  0  0
  7 51  1  0  0  0  0
  8  9  1  0  0  0  0
  8 52  1  0  0  0  0
  8 53  1  0  0  0  0
  9 10  1  0  0  0  0
  9 54  1  0  0  0  0
  9 55  1  0  0  0  0
 10 11  1  0  0  0  0
 10 56  1  0  0  0  0
 10 57  1  0  0  0  0
 11 34  1  0  0  0  0
 11  4  1  0  0  0  0
 11 58  1  1  0  0  0
 12 13  2  0  0  0  0
 13 14  1  0  0  0  0
 14 15  2  0  0  0  0
 15 16  1  0  0  0  0
 16 17  2  0  0  0  0
 16 59  1  0  0  0  0
 17 18  1  0  0  0  0
 17 60  1  0  0  0  0
 18  1  1  0  0  0  0
 18 19  2  0  0  0  0
 19 20  1  0  0  0  0
 19 14  1  0  0  0  0
 20 12  1  0  0  0  0
 20 21  1  0  0  0  0
 22 23  1  0  0  0  0
 22 61  1  0  0  0  0
 22 62  1  0  0  0  0
 22 63  1  0  0  0  0
 23 24  2  0  0  0  0
 24 12  1  0  0  0  0
 24 25  1  0  0  0  0
 25 26  2  0  0  0  0
 25 64  1  0  0  0  0
 26 27  1  0  0  0  0
 27 28  1  0  0  0  0
 27 23  1  0  0  0  0
 28 29  1  0  0  0  0
 28 65  1  0  0  0  0
 29 30  1  0  0  0  0
 29 66  1  0  0  0  0
 29 67  1  0  0  0  0
 30 31  1  0  0  0  0
 30 68  1  0  0  0  0
 30 69  1  0  0  0  0
 31 32  1  0  0  0  0
 32 33  1  0  0  0  0
 32 70  1  0  0  0  0
 32 71  1  0  0  0  0
 33 28  1  0  0  0  0
 33 72  1  0  0  0  0
 33 73  1  0  0  0  0
 34 35  1  0  0  0  0
 34 37  1  0  0  0  0
 35 36  2  0  0  0  0
 35 38  1  0  0  0  0
 38 39  2  0  0  0  0
 39 40  1  0  0  0  0
 40 41  2  0  0  0  0
 41 43  1  0  0  0  0
 41 42  1  0  0  0  0
 42 38  1  0  0  0  0
 43 44  1  0  0  0  0
 43 45  1  0  0  0  0
 43 46  1  0  0  0  0
 44 74  1  0  0  0  0
 44 75  1  0  0  0  0
 44 76  1  0  0  0  0
 45 77  1  0  0  0  0
 45 78  1  0  0  0  0
 45 79  1  0  0  0  0
 46 80  1  0  0  0  0
 46 81  1  0  0  0  0
 46 82  1  0  0  0  0
M  END
>  <minimizedAffinity>
-11.36658

$$$$
