L2:Q06187:146414


 48 53  0  0  0  0  0  0  0  0999 V2000
   -0.5082  -27.7085   20.9547 N   0  0  0  0  0  0  0  0  0  0  0  0
    0.3350  -28.3102   21.8577 C   0  0  0  0  0  0  0  0  0  0  0  0
    1.4411  -27.6116   22.1656 N   0  0  0  0  0  0  0  0  0  0  0  0
    2.2749  -28.0814   23.1108 C   0  0  0  0  0  0  0  0  0  0  0  0
    2.1424  -29.2825   23.8178 C   0  0  0  0  0  0  0  0  0  0  0  0
    1.0106  -30.0524   23.4419 C   0  0  0  0  0  0  0  0  0  0  0  0
    0.1035  -29.5560   22.4800 C   0  0  0  0  0  0  0  0  0  0  0  0
   -0.9306  -30.5320   22.3936 C   0  0  0  0  0  0  0  0  0  0  0  0
   -0.7211  -31.5342   23.2466 N   0  0  0  0  0  0  0  0  0  0  0  0
    0.4917  -31.2945   23.7851 N   0  0  0  0  0  0  0  0  0  0  0  0
    1.0707  -32.4409   24.4932 C   0  0  0  0  0  0  0  0  0  0  0  0
    0.8755  -32.3962   26.0107 C   0  0  0  0  0  0  0  0  0  0  0  0
    1.4134  -33.6634   26.6853 C   0  0  0  0  0  0  0  0  0  0  0  0
    2.7382  -34.1861   26.1109 C   0  0  0  0  0  0  0  0  0  0  0  0
    3.4251  -33.1721   25.1951 C   0  0  0  0  0  0  0  0  0  0  0  0
    2.4906  -32.8001   24.0369 C   0  0  0  0  0  0  0  0  0  0  0  0
    4.8333  -33.6105   24.7698 C   0  0  0  0  0  0  0  0  0  0  0  0
    5.5319  -34.3461   25.4601 O   0  0  0  0  0  0  0  0  0  0  0  0
    5.3059  -32.9792   23.6448 N   0  0  0  0  0  0  0  0  0  0  0  0
    6.7069  -32.8411   23.3301 C   0  0  0  0  0  0  0  0  0  0  0  0
    6.9577  -31.5765   22.4988 C   0  0  0  0  0  0  0  0  0  0  0  0
    6.6333  -30.2560   23.2216 C   0  0  0  0  0  0  0  0  0  0  0  0
    5.1578  -29.9618   23.3866 C   0  0  0  0  0  0  0  0  0  0  0  0
    4.5690  -29.8136   24.5868 C   0  0  0  0  0  0  0  0  0  0  0  0
    3.1284  -29.5251   24.9322 C   0  0  0  0  0  0  0  0  0  0  0  0
   -0.2290  -26.7859   20.6531 H   0  0  0  0  0  0  0  0  0  0  0  0
   -1.4401  -28.0454   20.7853 H   0  0  0  0  0  0  0  0  0  0  0  0
    4.6644  -32.5591   22.9917 H   0  0  0  0  0  0  0  0  0  0  0  0
   -2.1090  -30.5510   21.5350 C   0  0  0  0  0  0  0  0  0  0  0  0
   -2.9597  -29.4407   21.4853 C   0  0  0  0  0  0  0  0  0  0  0  0
   -4.0957  -29.4593   20.6711 C   0  0  0  0  0  0  0  0  0  0  0  0
   -4.3926  -30.5887   19.8971 C   0  0  0  0  0  0  0  0  0  0  0  0
   -3.5585  -31.7129   19.9676 C   0  0  0  0  0  0  0  0  0  0  0  0
   -2.4218  -31.6915   20.7833 C   0  0  0  0  0  0  0  0  0  0  0  0
   -5.6193  -30.5628   19.0472 C   0  0  0  0  0  0  0  0  0  0  0  0
   -6.4090  -31.4961   19.1288 O   0  0  0  0  0  0  0  0  0  0  0  0
   -5.7638  -29.4455   18.2595 N   0  0  0  0  0  0  0  0  0  0  0  0
   -5.1090  -28.6808   18.3360 H   0  0  0  0  0  0  0  0  0  0  0  0
   -6.7758  -29.1614   17.3428 C   0  0  0  0  0  0  0  0  0  0  0  0
   -7.9725  -29.8555   17.2551 C   0  0  0  0  0  0  0  0  0  0  0  0
   -8.9117  -29.4770   16.2850 C   0  0  0  0  0  0  0  0  0  0  0  0
   -8.6098  -28.4042   15.4438 C   0  0  0  0  0  0  0  0  0  0  0  0
   -7.3907  -27.7725   15.5999 C   0  0  0  0  0  0  0  0  0  0  0  0
   -6.4745  -28.1305   16.5247 N   0  0  0  0  0  0  0  0  0  0  0  0
  -10.2249  -30.2042   16.1824 C   0  0  0  0  0  0  0  0  0  0  0  0
  -11.3013  -29.3680   16.1985 F   0  0  0  0  0  0  0  0  0  0  0  0
  -10.4171  -31.0764   17.2088 F   0  0  0  0  0  0  0  0  0  0  0  0
  -10.3399  -30.9320   15.0384 F   0  0  0  0  0  0  0  0  0  0  0  0
  1  2  1  0  0  0
  2  3  2  0  0  0
  3  4  1  0  0  0
  4  5  2  0  0  0
  5  6  1  0  0  0
  6  7  2  0  0  0
  7  8  1  0  0  0
  8 29  1  0  0  0
 29 30  2  0  0  0
 30 31  1  0  0  0
 31 32  2  0  0  0
 32 35  1  0  0  0
 35 36  2  0  0  0
 35 37  1  0  0  0
 37 39  1  0  0  0
 39 40  2  0  0  0
 40 41  1  0  0  0
 41 45  1  0  0  0
 45 46  1  0  0  0
 45 47  1  0  0  0
 45 48  1  0  0  0
 41 42  2  0  0  0
 42 43  1  0  0  0
 43 44  2  0  0  0
 32 33  1  0  0  0
 33 34  2  0  0  0
  8  9  2  0  0  0
  9 10  1  0  0  0
 10 11  1  0  0  0
 11 12  1  0  0  0
 12 13  1  0  0  0
 13 14  1  0  0  0
 14 15  1  0  0  0
 15 16  1  0  0  0
 15 17  1  0  0  0
 17 18  2  0  0  0
 17 19  1  0  0  0
 19 20  1  0  0  0
 20 21  1  0  0  0
 21 22  1  0  0  0
 22 23  1  0  0  0
 23 24  2  0  0  0
 24 25  1  0  0  0
  7  2  1  0  0  0
 34 29  1  0  0  0
 16 11  1  0  0  0
 25  5  1  0  0  0
 10  6  1  0  0  0
 44 39  1  0  0  0
  1 26  1  0  0  0
  1 27  1  0  0  0
 37 38  1  0  0  0
 19 28  1  0  0  0
M  END
> <minimizedAffinity>
-12.34466

$$$$
