L2:Q06187:21421
     RDKit          3D

 63 67  0  0  0  0  0  0  0  0999 V2000
   -7.6206   -1.8200   -1.3950 C   0  0  0  0  0  0  0  0  0  0  0  0
   -6.2452   -2.4971   -1.2751 C   0  0  0  0  0  0  0  0  0  0  0  0
   -5.2775   -1.8314   -2.2701 C   0  0  0  0  0  0  0  0  0  0  0  0
   -6.3712   -3.9878   -1.6305 C   0  0  0  0  0  0  0  0  0  0  0  0
   -5.7254   -2.3499    0.1264 C   0  0  0  0  0  0  0  0  0  0  0  0
   -4.6299   -1.7682    0.5626 N   0  0  0  0  0  0  0  0  0  0  0  0
   -4.7127   -1.9683    1.9346 C   0  0  0  0  0  0  0  0  0  0  0  0
   -3.6828   -1.4865    2.8664 C   0  0  0  0  0  0  0  0  0  0  0  0
   -3.7159   -1.6514    4.0830 O   0  0  0  0  0  0  0  0  0  0  0  0
   -2.6536   -0.8194    2.2332 N   0  0  0  0  0  0  0  0  0  0  0  0
   -1.5275   -0.3003    2.9630 C   0  0  0  0  0  0  0  0  0  0  0  0
   -0.5466    0.3813    2.0390 C   0  0  0  0  0  0  0  0  0  0  0  0
   -0.5429    1.7875    1.9914 C   0  0  0  0  0  0  0  0  0  0  0  0
    0.3037    2.4766    1.1225 C   0  0  0  0  0  0  0  0  0  0  0  0
    1.1602    1.7838    0.2603 C   0  0  0  0  0  0  0  0  0  0  0  0
    2.0464    2.5094   -0.6649 C   0  0  0  0  0  0  0  0  0  0  0  0
    1.5353    3.4452   -1.5683 C   0  0  0  0  0  0  0  0  0  0  0  0
    2.4114    4.1006   -2.4145 C   0  0  0  0  0  0  0  0  0  0  0  0
    3.7447    3.8967   -2.4203 N   0  0  0  0  0  0  0  0  0  0  0  0
    4.2388    2.9942   -1.5466 C   0  0  0  0  0  0  0  0  0  0  0  0
    5.6231    2.8564   -1.6264 N   0  0  0  0  0  0  0  0  0  0  0  0
    6.4431    2.0570   -0.8788 C   0  0  0  0  0  0  0  0  0  0  0  0
    6.1299    1.2860    0.0149 O   0  0  0  0  0  0  0  0  0  0  0  0
    7.8762    2.1716   -1.2698 C   0  0  0  0  0  0  0  0  0  0  0  0
    8.5817    3.5087   -1.2902 C   0  0  0  0  0  0  0  0  0  0  0  0
    8.9100    2.5103   -0.2204 C   0  0  0  0  0  0  0  0  0  0  0  0
    3.4322    2.2882   -0.6648 C   0  0  0  0  0  0  0  0  0  0  0  0
    1.1385    0.3785    0.3106 C   0  0  0  0  0  0  0  0  0  0  0  0
    1.9188   -0.3036   -0.5469 F   0  0  0  0  0  0  0  0  0  0  0  0
    0.3181   -0.3571    1.1950 C   0  0  0  0  0  0  0  0  0  0  0  0
    0.3392   -1.8764    1.1828 C   0  0  0  0  0  0  0  0  0  0  0  0
    0.8366   -2.6374    2.3930 C   0  0  0  0  0  0  0  0  0  0  0  0
    1.6475   -2.6363    1.1375 C   0  0  0  0  0  0  0  0  0  0  0  0
   -5.8099   -2.6387    2.3213 N   0  0  0  0  0  0  0  0  0  0  0  0
   -6.4801   -2.8919    1.1279 O   0  0  0  0  0  0  0  0  0  0  0  0
   -7.5645   -0.7567   -1.1332 H   0  0  0  0  0  0  0  0  0  0  0  0
   -8.0104   -1.8930   -2.4168 H   0  0  0  0  0  0  0  0  0  0  0  0
   -8.3569   -2.2822   -0.7270 H   0  0  0  0  0  0  0  0  0  0  0  0
   -4.2808   -2.2864   -2.2239 H   0  0  0  0  0  0  0  0  0  0  0  0
   -5.6390   -1.9282   -3.3003 H   0  0  0  0  0  0  0  0  0  0  0  0
   -5.1597   -0.7618   -2.0588 H   0  0  0  0  0  0  0  0  0  0  0  0
   -7.0774   -4.5019   -0.9679 H   0  0  0  0  0  0  0  0  0  0  0  0
   -6.7264   -4.1214   -2.6587 H   0  0  0  0  0  0  0  0  0  0  0  0
   -5.4063   -4.5009   -1.5402 H   0  0  0  0  0  0  0  0  0  0  0  0
   -2.7020   -0.7290    1.2233 H   0  0  0  0  0  0  0  0  0  0  0  0
   -1.0553   -1.1113    3.5252 H   0  0  0  0  0  0  0  0  0  0  0  0
   -1.9084    0.4023    3.7145 H   0  0  0  0  0  0  0  0  0  0  0  0
   -1.2078    2.3593    2.6377 H   0  0  0  0  0  0  0  0  0  0  0  0
    0.2912    3.5650    1.1286 H   0  0  0  0  0  0  0  0  0  0  0  0
    0.4720    3.6538   -1.6262 H   0  0  0  0  0  0  0  0  0  0  0  0
    2.0514    4.8299   -3.1347 H   0  0  0  0  0  0  0  0  0  0  0  0
    6.0308    3.4454   -2.3382 H   0  0  0  0  0  0  0  0  0  0  0  0
    8.1783    1.4330   -2.0060 H   0  0  0  0  0  0  0  0  0  0  0  0
    8.0383    4.3976   -0.9892 H   0  0  0  0  0  0  0  0  0  0  0  0
    9.3192    3.6808   -2.0658 H   0  0  0  0  0  0  0  0  0  0  0  0
    8.5661    2.7067    0.7897 H   0  0  0  0  0  0  0  0  0  0  0  0
    9.8637    1.9978   -0.2694 H   0  0  0  0  0  0  0  0  0  0  0  0
    3.8530    1.5667    0.0271 H   0  0  0  0  0  0  0  0  0  0  0  0
   -0.4788   -2.3365    0.6305 H   0  0  0  0  0  0  0  0  0  0  0  0
    0.3178   -3.5499    2.6643 H   0  0  0  0  0  0  0  0  0  0  0  0
    1.2338   -2.0880    3.2394 H   0  0  0  0  0  0  0  0  0  0  0  0
    1.6816   -3.5458    0.5484 H   0  0  0  0  0  0  0  0  0  0  0  0
    2.5831   -2.0875    1.1443 H   0  0  0  0  0  0  0  0  0  0  0  0
  1  2  1  0
  2  3  1  0
  2  4  1  0
  2  5  1  0
  5  6  2  0
  6  7  1  0
  7  8  1  0
  8  9  2  0
  8 10  1  0
 10 11  1  0
 11 12  1  0
 12 13  2  0
 13 14  1  0
 14 15  2  0
 15 16  1  0
 16 17  2  0
 17 18  1  0
 18 19  2  0
 19 20  1  0
 20 21  1  0
 21 22  1  0
 22 23  2  0
 22 24  1  0
 24 25  1  0
 25 26  1  0
 20 27  2  0
 15 28  1  0
 28 29  1  0
 28 30  2  0
 30 31  1  0
 31 32  1  0
 32 33  1  0
  7 34  2  0
 34 35  1  0
 35  5  1  0
 30 12  1  0
 33 31  1  0
 27 16  1  0
 26 24  1  0
  1 36  1  0
  1 37  1  0
  1 38  1  0
  3 39  1  0
  3 40  1  0
  3 41  1  0
  4 42  1  0
  4 43  1  0
  4 44  1  0
 10 45  1  0
 11 46  1  0
 11 47  1  0
 13 48  1  0
 14 49  1  0
 17 50  1  0
 18 51  1  0
 21 52  1  0
 24 53  1  0
 25 54  1  0
 25 55  1  0
 26 56  1  0
 26 57  1  0
 27 58  1  0
 31 59  1  0
 32 60  1  0
 32 61  1  0
 33 62  1  0
 33 63  1  0
M  END
>  <mol_id>  (1) 
21421

>  <source_index>  (1) 
1

>  <layer>  (1) 
L2

>  <uniprot>  (1) 
Q06187

>  <paff>  (1) 
9

>  <smiles>  (1) 
CC(C)(C)c1nc(C(=O)NCc2ccc(-c3ccnc(NC(=O)C4CC4)c3)c(F)c2C2CC2)no1

$$$$
