L2:Q06187:21421


 37 41  0  0  0  0  0  0  0  0999 V2000
   -2.0681  -28.8579   22.0055 C   0  0  0  0  0  0  0  0  0  0  0  0
   -2.2982  -30.2061   22.3358 C   0  0  0  0  0  0  0  0  0  0  0  0
   -3.1054  -31.0160   21.5364 C   0  0  0  0  0  0  0  0  0  0  0  0
   -3.6936  -30.5111   20.3719 C   0  0  0  0  0  0  0  0  0  0  0  0
   -3.4466  -29.1651   20.0478 C   0  0  0  0  0  0  0  0  0  0  0  0
   -3.9631  -28.6779   18.9053 F   0  0  0  0  0  0  0  0  0  0  0  0
   -2.6595  -28.3035   20.8444 C   0  0  0  0  0  0  0  0  0  0  0  0
   -4.5369  -31.3675   19.5215 C   0  0  0  0  0  0  0  0  0  0  0  0
   -4.0687  -32.5949   19.0446 C   0  0  0  0  0  0  0  0  0  0  0  0
   -4.9020  -33.3620   18.2507 C   0  0  0  0  0  0  0  0  0  0  0  0
   -6.1553  -33.0003   17.9074 N   0  0  0  0  0  0  0  0  0  0  0  0
   -6.6083  -31.8156   18.3693 C   0  0  0  0  0  0  0  0  0  0  0  0
   -5.8387  -30.9809   19.1678 C   0  0  0  0  0  0  0  0  0  0  0  0
   -7.9112  -31.5325   17.9644 N   0  0  0  0  0  0  0  0  0  0  0  0
   -8.3272  -30.7946   16.8907 C   0  0  0  0  0  0  0  0  0  0  0  0
   -7.6388  -30.2333   16.0527 O   0  0  0  0  0  0  0  0  0  0  0  0
   -8.6042  -31.9410   18.5749 H   0  0  0  0  0  0  0  0  0  0  0  0
   -9.8110  -30.7277   16.7746 C   0  0  0  0  0  0  0  0  0  0  0  0
  -10.5169  -29.4318   16.4455 C   0  0  0  0  0  0  0  0  0  0  0  0
  -10.4436  -30.5213   15.4175 C   0  0  0  0  0  0  0  0  0  0  0  0
   -2.4258  -26.8625   20.4225 C   0  0  0  0  0  0  0  0  0  0  0  0
   -2.3465  -26.5060   18.9536 C   0  0  0  0  0  0  0  0  0  0  0  0
   -1.1145  -26.4376   19.7971 C   0  0  0  0  0  0  0  0  0  0  0  0
   -1.1397  -28.0546   22.8848 C   0  0  0  0  0  0  0  0  0  0  0  0
    1.2977  -28.3943   22.8113 C   0  0  0  0  0  0  0  0  0  0  0  0
    1.4844  -27.3579   22.1794 O   0  0  0  0  0  0  0  0  0  0  0  0
    0.0429  -28.8052   23.2136 N   0  0  0  0  0  0  0  0  0  0  0  0
   -0.0241  -29.6764   23.7303 H   0  0  0  0  0  0  0  0  0  0  0  0
    4.2879  -30.0589   23.6557 C   0  0  0  0  0  0  0  0  0  0  0  0
    3.7028  -28.9584   23.2370 N   0  0  0  0  0  0  0  0  0  0  0  0
    2.3626  -29.3229   23.2172 C   0  0  0  0  0  0  0  0  0  0  0  0
    2.1376  -30.5892   23.6027 N   0  0  0  0  0  0  0  0  0  0  0  0
    3.4085  -31.0770   23.8931 O   0  0  0  0  0  0  0  0  0  0  0  0
    5.8853  -31.5198   24.8811 C   0  0  0  0  0  0  0  0  0  0  0  0
    5.7422  -30.3428   23.9020 C   0  0  0  0  0  0  0  0  0  0  0  0
    6.4398  -30.7111   22.5801 C   0  0  0  0  0  0  0  0  0  0  0  0
    6.4243  -29.0965   24.4901 C   0  0  0  0  0  0  0  0  0  0  0  0
 34 35  1  0  0  0
 35 36  1  0  0  0
 35 37  1  0  0  0
 35 29  1  0  0  0
 29 30  2  0  0  0
 30 31  1  0  0  0
 31 25  1  0  0  0
 25 26  2  0  0  0
 25 27  1  0  0  0
 27 24  1  0  0  0
 24  1  1  0  0  0
  1  2  2  0  0  0
  2  3  1  0  0  0
  3  4  2  0  0  0
  4  8  1  0  0  0
  8  9  2  0  0  0
  9 10  1  0  0  0
 10 11  2  0  0  0
 11 12  1  0  0  0
 12 14  1  0  0  0
 14 15  1  0  0  0
 15 16  2  0  0  0
 15 18  1  0  0  0
 18 19  1  0  0  0
 19 20  1  0  0  0
 12 13  2  0  0  0
  4  5  1  0  0  0
  5  6  1  0  0  0
  5  7  2  0  0  0
  7 21  1  0  0  0
 21 22  1  0  0  0
 22 23  1  0  0  0
 31 32  2  0  0  0
 32 33  1  0  0  0
 33 29  1  0  0  0
  7  1  1  0  0  0
 23 21  1  0  0  0
 13  8  1  0  0  0
 20 18  1  0  0  0
 27 28  1  0  0  0
 14 17  1  0  0  0
M  END
> <minimizedAffinity>
-10.04717

$$$$
