L2:Q06187:89453


 37 41  0  0  0  0  0  0  0  0999 V2000
   -2.2802  -29.7292   22.0560 C   0  0  0  0  0  0  0  0  0  0  0  0
   -3.1753  -28.9993   21.2508 C   0  0  0  0  0  0  0  0  0  0  0  0
   -3.9627  -29.6397   20.2917 C   0  0  0  0  0  0  0  0  0  0  0  0
   -3.8605  -31.0234   20.1252 C   0  0  0  0  0  0  0  0  0  0  0  0
   -2.9666  -31.7584   20.8996 C   0  0  0  0  0  0  0  0  0  0  0  0
   -2.8759  -33.0885   20.7390 F   0  0  0  0  0  0  0  0  0  0  0  0
   -2.1776  -31.1192   21.8607 C   0  0  0  0  0  0  0  0  0  0  0  0
   -1.0692  -32.0730   22.7841 Cl  0  0  0  0  0  0  0  0  0  0  0  0
   -4.6627  -31.7068   19.0971 C   0  0  0  0  0  0  0  0  0  0  0  0
   -4.6635  -33.0008   19.0321 N   0  0  0  0  0  0  0  0  0  0  0  0
   -5.4106  -33.6048   18.0480 C   0  0  0  0  0  0  0  0  0  0  0  0
   -6.1237  -33.0173   17.1372 N   0  0  0  0  0  0  0  0  0  0  0  0
   -6.1145  -31.6755   17.2166 N   0  0  0  0  0  0  0  0  0  0  0  0
   -6.7833  -30.8170   16.3887 C   0  0  0  0  0  0  0  0  0  0  0  0
   -6.5451  -29.5297   16.8147 C   0  0  0  0  0  0  0  0  0  0  0  0
   -5.6896  -29.6210   17.9438 C   0  0  0  0  0  0  0  0  0  0  0  0
   -5.4298  -30.9606   18.1532 C   0  0  0  0  0  0  0  0  0  0  0  0
   -7.0426  -28.3971   16.2564 N   0  0  0  0  0  0  0  0  0  0  0  0
   -6.2360  -27.1735   16.1068 C   0  0  0  0  0  0  0  0  0  0  0  0
   -7.1464  -25.9346   16.0935 C   0  0  0  0  0  0  0  0  0  0  0  0
   -8.1233  -25.9354   15.0425 O   0  0  0  0  0  0  0  0  0  0  0  0
   -8.4999  -27.2538   14.6226 C   0  0  0  0  0  0  0  0  0  0  0  0
   -8.4163  -28.3096   15.7369 C   0  0  0  0  0  0  0  0  0  0  0  0
   -1.4436  -28.9857   23.0662 C   0  0  0  0  0  0  0  0  0  0  0  0
    0.1803  -27.5620   21.8763 C   0  0  0  0  0  0  0  0  0  0  0  0
    0.9418  -28.5192   21.7408 O   0  0  0  0  0  0  0  0  0  0  0  0
   -1.0205  -27.7043   22.5566 N   0  0  0  0  0  0  0  0  0  0  0  0
   -1.6563  -26.9163   22.5986 H   0  0  0  0  0  0  0  0  0  0  0  0
    0.4308  -24.3800   20.3698 C   0  0  0  0  0  0  0  0  0  0  0  0
    1.5286  -24.3138   21.1392 N   0  0  0  0  0  0  0  0  0  0  0  0
    1.5372  -25.5410   21.7995 O   0  0  0  0  0  0  0  0  0  0  0  0
    0.4408  -26.2295   21.3606 C   0  0  0  0  0  0  0  0  0  0  0  0
   -0.2692  -25.5566   20.4795 N   0  0  0  0  0  0  0  0  0  0  0  0
   -0.6743  -22.1216   20.2585 C   0  0  0  0  0  0  0  0  0  0  0  0
    0.0069  -23.2526   19.4609 C   0  0  0  0  0  0  0  0  0  0  0  0
    1.2338  -22.6594   18.7414 C   0  0  0  0  0  0  0  0  0  0  0  0
   -0.9943  -23.7663   18.4080 C   0  0  0  0  0  0  0  0  0  0  0  0
 34 35  1  0  0  0
 35 36  1  0  0  0
 35 37  1  0  0  0
 35 29  1  0  0  0
 29 30  2  0  0  0
 30 31  1  0  0  0
 31 32  1  0  0  0
 32 25  1  0  0  0
 25 26  2  0  0  0
 25 27  1  0  0  0
 27 24  1  0  0  0
 24  1  1  0  0  0
  1  2  2  0  0  0
  2  3  1  0  0  0
  3  4  2  0  0  0
  4  9  1  0  0  0
  9 10  2  0  0  0
 10 11  1  0  0  0
 11 12  2  0  0  0
 12 13  1  0  0  0
 13 14  1  0  0  0
 14 15  2  0  0  0
 15 18  1  0  0  0
 18 19  1  0  0  0
 19 20  1  0  0  0
 20 21  1  0  0  0
 21 22  1  0  0  0
 22 23  1  0  0  0
 15 16  1  0  0  0
 16 17  2  0  0  0
  4  5  1  0  0  0
  5  6  1  0  0  0
  5  7  2  0  0  0
  7  8  1  0  0  0
 32 33  2  0  0  0
 33 29  1  0  0  0
  7  1  1  0  0  0
 17  9  1  0  0  0
 17 13  1  0  0  0
 23 18  1  0  0  0
 27 28  1  0  0  0
M  END
> <minimizedAffinity>
-10.18600

$$$$
