L2:Q06187:89453
     RDKit          3D

 61 65  0  0  0  0  0  0  0  0999 V2000
    9.2253   -0.1497   -1.8398 C   0  0  0  0  0  0  0  0  0  0  0  0
    8.7148   -0.2192   -0.3858 C   0  0  0  0  0  0  0  0  0  0  0  0
    9.5037    0.8088    0.4484 C   0  0  0  0  0  0  0  0  0  0  0  0
    9.0018   -1.6332    0.1555 C   0  0  0  0  0  0  0  0  0  0  0  0
    7.2368    0.0758   -0.3137 C   0  0  0  0  0  0  0  0  0  0  0  0
    6.5564    0.0793    0.8433 N   0  0  0  0  0  0  0  0  0  0  0  0
    5.2557    0.3942    0.4545 O   0  0  0  0  0  0  0  0  0  0  0  0
    5.2795    0.5487   -0.9035 C   0  0  0  0  0  0  0  0  0  0  0  0
    4.0531    0.8829   -1.6062 C   0  0  0  0  0  0  0  0  0  0  0  0
    3.9727    1.0409   -2.8240 O   0  0  0  0  0  0  0  0  0  0  0  0
    2.9327    1.0204   -0.7996 N   0  0  0  0  0  0  0  0  0  0  0  0
    1.6593    1.4155   -1.3501 C   0  0  0  0  0  0  0  0  0  0  0  0
    0.5272    1.0744   -0.4146 C   0  0  0  0  0  0  0  0  0  0  0  0
   -0.2029   -0.1083   -0.6394 C   0  0  0  0  0  0  0  0  0  0  0  0
   -1.2520   -0.4752    0.2061 C   0  0  0  0  0  0  0  0  0  0  0  0
   -1.5816    0.3397    1.2924 C   0  0  0  0  0  0  0  0  0  0  0  0
   -2.6656   -0.0508    2.2090 C   0  0  0  0  0  0  0  0  0  0  0  0
   -2.4156   -0.2271    3.4680 N   0  0  0  0  0  0  0  0  0  0  0  0
   -3.4486   -0.6086    4.2918 C   0  0  0  0  0  0  0  0  0  0  0  0
   -4.6784   -0.8375    3.9476 N   0  0  0  0  0  0  0  0  0  0  0  0
   -4.9240   -0.6503    2.6393 N   0  0  0  0  0  0  0  0  0  0  0  0
   -6.1303   -0.8143    2.0167 C   0  0  0  0  0  0  0  0  0  0  0  0
   -5.9779   -0.4979    0.6855 C   0  0  0  0  0  0  0  0  0  0  0  0
   -6.9509   -0.5266   -0.2602 N   0  0  0  0  0  0  0  0  0  0  0  0
   -8.2819   -1.1030   -0.0027 C   0  0  0  0  0  0  0  0  0  0  0  0
   -8.9072   -1.6048   -1.3146 C   0  0  0  0  0  0  0  0  0  0  0  0
   -9.0663   -0.5887   -2.3152 O   0  0  0  0  0  0  0  0  0  0  0  0
   -8.1107    0.4741   -2.1977 C   0  0  0  0  0  0  0  0  0  0  0  0
   -6.7611    0.0351   -1.6067 C   0  0  0  0  0  0  0  0  0  0  0  0
   -4.6180   -0.1352    0.5013 C   0  0  0  0  0  0  0  0  0  0  0  0
   -3.9922   -0.2576    1.7257 C   0  0  0  0  0  0  0  0  0  0  0  0
   -0.8578    1.5030    1.5410 C   0  0  0  0  0  0  0  0  0  0  0  0
   -1.1819    2.2851    2.5834 F   0  0  0  0  0  0  0  0  0  0  0  0
    0.1926    1.8723    0.6954 C   0  0  0  0  0  0  0  0  0  0  0  0
    1.0732    3.3162    1.0572 Cl  0  0  0  0  0  0  0  0  0  0  0  0
    6.4756    0.3612   -1.4207 N   0  0  0  0  0  0  0  0  0  0  0  0
    9.0630    0.8445   -2.2729 H   0  0  0  0  0  0  0  0  0  0  0  0
    8.7099   -0.8763   -2.4792 H   0  0  0  0  0  0  0  0  0  0  0  0
   10.2990   -0.3634   -1.8950 H   0  0  0  0  0  0  0  0  0  0  0  0
    9.2209    0.7711    1.5069 H   0  0  0  0  0  0  0  0  0  0  0  0
   10.5826    0.6249    0.3890 H   0  0  0  0  0  0  0  0  0  0  0  0
    9.3179    1.8305    0.0963 H   0  0  0  0  0  0  0  0  0  0  0  0
   10.0687   -1.8752    0.0895 H   0  0  0  0  0  0  0  0  0  0  0  0
    8.4500   -2.3933   -0.4103 H   0  0  0  0  0  0  0  0  0  0  0  0
    8.7066   -1.7299    1.2069 H   0  0  0  0  0  0  0  0  0  0  0  0
    3.0403    0.9470    0.2054 H   0  0  0  0  0  0  0  0  0  0  0  0
    1.6906    2.4891   -1.5661 H   0  0  0  0  0  0  0  0  0  0  0  0
    1.5147    0.9191   -2.3176 H   0  0  0  0  0  0  0  0  0  0  0  0
    0.0494   -0.7575   -1.4782 H   0  0  0  0  0  0  0  0  0  0  0  0
   -1.7935   -1.4013    0.0223 H   0  0  0  0  0  0  0  0  0  0  0  0
   -3.1846   -0.7351    5.3557 H   0  0  0  0  0  0  0  0  0  0  0  0
   -6.9873   -1.1270    2.5935 H   0  0  0  0  0  0  0  0  0  0  0  0
   -8.2219   -1.9496    0.6905 H   0  0  0  0  0  0  0  0  0  0  0  0
   -8.9194   -0.3314    0.4446 H   0  0  0  0  0  0  0  0  0  0  0  0
   -9.8963   -2.0319   -1.1208 H   0  0  0  0  0  0  0  0  0  0  0  0
   -8.2885   -2.3994   -1.7485 H   0  0  0  0  0  0  0  0  0  0  0  0
   -8.5608    1.2580   -1.5770 H   0  0  0  0  0  0  0  0  0  0  0  0
   -7.9640    0.8950   -3.1975 H   0  0  0  0  0  0  0  0  0  0  0  0
   -6.3047   -0.7299   -2.2456 H   0  0  0  0  0  0  0  0  0  0  0  0
   -6.0997    0.9084   -1.5827 H   0  0  0  0  0  0  0  0  0  0  0  0
   -4.1490    0.1733   -0.4222 H   0  0  0  0  0  0  0  0  0  0  0  0
  1  2  1  0
  2  3  1  0
  2  4  1  0
  2  5  1  0
  5  6  2  0
  6  7  1  0
  7  8  1  0
  8  9  1  0
  9 10  2  0
  9 11  1  0
 11 12  1  0
 12 13  1  0
 13 14  2  0
 14 15  1  0
 15 16  2  0
 16 17  1  0
 17 18  2  0
 18 19  1  0
 19 20  2  0
 20 21  1  0
 21 22  1  0
 22 23  2  0
 23 24  1  0
 24 25  1  0
 25 26  1  0
 26 27  1  0
 27 28  1  0
 28 29  1  0
 23 30  1  0
 30 31  2  0
 16 32  1  0
 32 33  1  0
 32 34  2  0
 34 35  1  0
  8 36  2  0
 36  5  1  0
 34 13  1  0
 31 17  1  0
 31 21  1  0
 29 24  1  0
  1 37  1  0
  1 38  1  0
  1 39  1  0
  3 40  1  0
  3 41  1  0
  3 42  1  0
  4 43  1  0
  4 44  1  0
  4 45  1  0
 11 46  1  0
 12 47  1  0
 12 48  1  0
 14 49  1  0
 15 50  1  0
 19 51  1  0
 22 52  1  0
 25 53  1  0
 25 54  1  0
 26 55  1  0
 26 56  1  0
 28 57  1  0
 28 58  1  0
 29 59  1  0
 29 60  1  0
 30 61  1  0
M  END
>  <mol_id>  (1) 
89453

>  <source_index>  (1) 
2

>  <layer>  (1) 
L2

>  <uniprot>  (1) 
Q06187

>  <paff>  (1) 
9

>  <smiles>  (1) 
CC(C)(C)c1noc(C(=O)NCc2ccc(-c3ncnn4cc(N5CCOCC5)cc34)c(F)c2Cl)n1

$$$$
