L2:Q06187:9210
     RDKit          3D

 77 82  0  0  0  0  0  0  0  0999 V2000
    7.9109   -1.6547    3.0514 C   0  0  0  0  0  0  0  0  0  0  0  0
    7.4005   -1.1887    1.7402 C   0  0  0  0  0  0  0  0  0  0  0  0
    8.2602   -1.0035    0.7279 N   0  0  0  0  0  0  0  0  0  0  0  0
    7.4861   -0.5862   -0.2943 N   0  0  0  0  0  0  0  0  0  0  0  0
    8.1002   -0.2803   -1.5825 C   0  0  0  0  0  0  0  0  0  0  0  0
    7.5831   -1.2052   -2.6833 C   0  0  0  0  0  0  0  0  0  0  0  0
    7.9160    1.1899   -1.9558 C   0  0  0  0  0  0  0  0  0  0  0  0
    6.1657   -0.5026    0.0332 C   0  0  0  0  0  0  0  0  0  0  0  0
    6.0748   -0.8868    1.3494 C   0  0  0  0  0  0  0  0  0  0  0  0
    4.7409   -0.9388    2.1378 C   0  0  0  0  0  0  0  0  0  0  0  0
    3.5707   -0.6221    1.6154 N   0  0  0  0  0  0  0  0  0  0  0  0
    2.6482   -0.7961    2.6261 C   0  0  0  0  0  0  0  0  0  0  0  0
    1.2497   -0.6141    2.6786 C   0  0  0  0  0  0  0  0  0  0  0  0
    0.4938   -0.1537    1.5047 C   0  0  0  0  0  0  0  0  0  0  0  0
    0.7291   -0.6779    0.2299 C   0  0  0  0  0  0  0  0  0  0  0  0
   -0.0040   -0.2430   -0.8775 C   0  0  0  0  0  0  0  0  0  0  0  0
   -1.0005    0.7422   -0.7573 C   0  0  0  0  0  0  0  0  0  0  0  0
   -1.2586    1.2824    0.5158 C   0  0  0  0  0  0  0  0  0  0  0  0
   -0.5083    0.8254    1.6220 C   0  0  0  0  0  0  0  0  0  0  0  0
   -2.3222    2.3267    0.7610 C   0  0  0  0  0  0  0  0  0  0  0  0
   -2.0831    3.6320    0.0097 C   0  0  0  0  0  0  0  0  0  0  0  0
   -2.5038    3.5790   -1.4543 C   0  0  0  0  0  0  0  0  0  0  0  0
   -1.6548    2.6528   -2.3221 C   0  0  0  0  0  0  0  0  0  0  0  0
   -1.7537    1.1486   -2.0119 C   0  0  2  0  0  0  0  0  0  0  0  0
   -3.1124    0.6509   -1.9686 N   0  0  0  0  0  0  0  0  0  0  0  0
   -3.9037    0.5122   -3.0913 C   0  0  0  0  0  0  0  0  0  0  0  0
   -3.5237    0.8114   -4.2197 O   0  0  0  0  0  0  0  0  0  0  0  0
   -5.2364   -0.0291   -2.7848 C   0  0  0  0  0  0  0  0  0  0  0  0
   -6.1782   -0.2573   -3.7143 N   0  0  0  0  0  0  0  0  0  0  0  0
   -7.2506   -0.7584   -2.9819 O   0  0  0  0  0  0  0  0  0  0  0  0
   -6.8590   -0.7862   -1.6735 C   0  0  0  0  0  0  0  0  0  0  0  0
   -7.8572   -1.2956   -0.6736 C   0  0  0  0  0  0  0  0  0  0  0  0
   -8.2362   -2.7477   -1.0086 C   0  0  0  0  0  0  0  0  0  0  0  0
   -7.2540   -1.2555    0.7422 C   0  0  0  0  0  0  0  0  0  0  0  0
   -9.1171   -0.4145   -0.6991 C   0  0  0  0  0  0  0  0  0  0  0  0
   -5.6327   -0.3485   -1.4922 N   0  0  0  0  0  0  0  0  0  0  0  0
    0.6427   -0.9019    3.9167 C   0  0  0  0  0  0  0  0  0  0  0  0
    1.4156   -1.3325    4.9923 C   0  0  0  0  0  0  0  0  0  0  0  0
    2.7561   -1.5126    4.9794 N   0  0  0  0  0  0  0  0  0  0  0  0
    3.2894   -1.2288    3.7794 C   0  0  0  0  0  0  0  0  0  0  0  0
    4.6086   -1.3120    3.4484 N   0  0  0  0  0  0  0  0  0  0  0  0
    8.9960   -1.8019    3.0332 H   0  0  0  0  0  0  0  0  0  0  0  0
    7.6868   -0.9209    3.8321 H   0  0  0  0  0  0  0  0  0  0  0  0
    7.4494   -2.6087    3.3248 H   0  0  0  0  0  0  0  0  0  0  0  0
    9.1758   -0.4660   -1.4635 H   0  0  0  0  0  0  0  0  0  0  0  0
    6.5144   -1.0532   -2.8707 H   0  0  0  0  0  0  0  0  0  0  0  0
    8.1177   -1.0254   -3.6220 H   0  0  0  0  0  0  0  0  0  0  0  0
    7.7261   -2.2564   -2.4094 H   0  0  0  0  0  0  0  0  0  0  0  0
    6.8608    1.4381   -2.1138 H   0  0  0  0  0  0  0  0  0  0  0  0
    8.2963    1.8446   -1.1638 H   0  0  0  0  0  0  0  0  0  0  0  0
    8.4583    1.4255   -2.8776 H   0  0  0  0  0  0  0  0  0  0  0  0
    5.4100   -0.1836   -0.6712 H   0  0  0  0  0  0  0  0  0  0  0  0
    1.4943   -1.4385    0.0816 H   0  0  0  0  0  0  0  0  0  0  0  0
    0.2186   -0.6868   -1.8467 H   0  0  0  0  0  0  0  0  0  0  0  0
   -0.7009    1.2626    2.6012 H   0  0  0  0  0  0  0  0  0  0  0  0
   -2.3507    2.5653    1.8322 H   0  0  0  0  0  0  0  0  0  0  0  0
   -3.3106    1.9115    0.5329 H   0  0  0  0  0  0  0  0  0  0  0  0
   -1.0343    3.9428    0.0920 H   0  0  0  0  0  0  0  0  0  0  0  0
   -2.6803    4.4155    0.4935 H   0  0  0  0  0  0  0  0  0  0  0  0
   -2.4221    4.5934   -1.8653 H   0  0  0  0  0  0  0  0  0  0  0  0
   -3.5635    3.3076   -1.5299 H   0  0  0  0  0  0  0  0  0  0  0  0
   -0.6050    2.9710   -2.2738 H   0  0  0  0  0  0  0  0  0  0  0  0
   -1.9695    2.8128   -3.3616 H   0  0  0  0  0  0  0  0  0  0  0  0
   -1.2804    0.6443   -2.8660 H   0  0  0  0  0  0  0  0  0  0  0  0
   -3.5044    0.3344   -1.0878 H   0  0  0  0  0  0  0  0  0  0  0  0
   -7.3535   -3.3983   -1.0117 H   0  0  0  0  0  0  0  0  0  0  0  0
   -8.7017   -2.8246   -1.9982 H   0  0  0  0  0  0  0  0  0  0  0  0
   -8.9464   -3.1505   -0.2775 H   0  0  0  0  0  0  0  0  0  0  0  0
   -6.3526   -1.8762    0.8106 H   0  0  0  0  0  0  0  0  0  0  0  0
   -6.9718   -0.2350    1.0279 H   0  0  0  0  0  0  0  0  0  0  0  0
   -7.9677   -1.6236    1.4881 H   0  0  0  0  0  0  0  0  0  0  0  0
   -8.8751    0.6318   -0.4776 H   0  0  0  0  0  0  0  0  0  0  0  0
   -9.6040   -0.4358   -1.6812 H   0  0  0  0  0  0  0  0  0  0  0  0
   -9.8517   -0.7521    0.0408 H   0  0  0  0  0  0  0  0  0  0  0  0
   -0.4317   -0.8064    4.0418 H   0  0  0  0  0  0  0  0  0  0  0  0
    0.9407   -1.5576    5.9452 H   0  0  0  0  0  0  0  0  0  0  0  0
    5.3404   -1.5987    4.0762 H   0  0  0  0  0  0  0  0  0  0  0  0
  1  2  1  0
  2  3  2  0
  3  4  1  0
  4  5  1  0
  5  6  1  0
  5  7  1  0
  4  8  1  0
  8  9  2  0
  9 10  1  0
 10 11  2  0
 11 12  1  0
 12 13  2  0
 13 14  1  0
 14 15  2  0
 15 16  1  0
 16 17  2  0
 17 18  1  0
 18 19  2  0
 18 20  1  0
 20 21  1  0
 21 22  1  0
 22 23  1  0
 23 24  1  0
 24 25  1  0
 25 26  1  0
 26 27  2  0
 26 28  1  0
 28 29  2  0
 29 30  1  0
 30 31  1  0
 31 32  1  0
 32 33  1  0
 32 34  1  0
 32 35  1  0
 31 36  2  0
 13 37  1  0
 37 38  2  0
 38 39  1  0
 39 40  2  0
 40 41  1  0
  9  2  1  0
 41 10  1  0
 40 12  1  0
 19 14  1  0
 36 28  1  0
 24 17  1  0
  1 42  1  0
  1 43  1  0
  1 44  1  0
  5 45  1  0
  6 46  1  0
  6 47  1  0
  6 48  1  0
  7 49  1  0
  7 50  1  0
  7 51  1  0
  8 52  1  0
 15 53  1  0
 16 54  1  0
 19 55  1  0
 20 56  1  0
 20 57  1  0
 21 58  1  0
 21 59  1  0
 22 60  1  0
 22 61  1  0
 23 62  1  0
 23 63  1  0
 24 64  1  6
 25 65  1  0
 33 66  1  0
 33 67  1  0
 33 68  1  0
 34 69  1  0
 34 70  1  0
 34 71  1  0
 35 72  1  0
 35 73  1  0
 35 74  1  0
 37 75  1  0
 38 76  1  0
 41 77  1  0
M  END
>  <mol_id>  (1) 
9210

>  <source_index>  (1) 
0

>  <layer>  (1) 
L2

>  <uniprot>  (1) 
Q06187

>  <paff>  (1) 
8.2596000000000007

>  <smiles>  (1) 
Cc1nn(C(C)C)cc1-c1nc2c(-c3ccc4c(c3)CCCC[C@@H]4NC(=O)c3noc(C(C)(C)C)n3)ccnc2[nH]1

$$$$
