L2:O14757:4906
     RDKit          3D

 39 41  0  0  0  0  0  0  0  0999 V2000
   14.2207   -3.8385   14.6275 C   0  0  0  0  0  0  0  0  0  0  0  0
   15.5239   -3.5048   14.3120 C   0  0  0  0  0  0  0  0  0  0  0  0
   15.4480   -2.9971   13.0252 N   0  0  0  0  0  0  0  0  0  0  0  0
   14.1307   -3.0024   12.6633 C   0  0  0  0  0  0  0  0  0  0  0  0
   13.3659   -3.4955   13.6019 N   0  0  0  0  0  0  0  0  0  0  0  0
   16.5189   -2.6788   12.1399 C   0  0  0  0  0  0  0  0  0  0  0  0
   16.2520   -1.9248   11.0038 C   0  0  0  0  0  0  0  0  0  0  0  0
   17.2308   -1.7319   10.0508 C   0  0  0  0  0  0  0  0  0  0  0  0
   18.5107   -2.2401   10.2529 C   0  0  0  0  0  0  0  0  0  0  0  0
   18.7929   -2.9501   11.4108 C   0  0  0  0  0  0  0  0  0  0  0  0
   17.8017   -3.1545   12.3637 C   0  0  0  0  0  0  0  0  0  0  0  0
   19.4001   -1.9770    9.2452 O   0  0  0  0  0  0  0  0  0  0  0  0
   20.7763   -2.2969    9.4542 C   0  0  0  0  0  0  0  0  0  0  0  0
   21.5717   -1.6332    8.3537 C   0  0  0  0  0  0  0  0  0  0  0  0
   21.5391   -0.1856    8.4888 N   0  0  0  0  0  0  0  0  0  0  0  0
   20.6048    0.1767    8.3566 H   0  0  0  0  0  0  0  0  0  0  0  0
   22.1438    0.2669    7.8185 H   0  0  0  0  0  0  0  0  0  0  0  0
   13.6494   -4.4627   15.7170 N   0  0  0  0  0  0  0  0  0  0  0  0
   12.6175   -4.4208   15.7635 H   0  0  0  0  0  0  0  0  0  0  0  0
   15.3710   -6.2730   18.8584 C   0  0  0  0  0  0  0  0  0  0  0  0
   16.1329   -5.8555   17.7789 C   0  0  0  0  0  0  0  0  0  0  0  0
   15.5868   -5.3093   16.7037 N   0  0  0  0  0  0  0  0  0  0  0  0
   14.2659   -5.1275   16.7215 C   0  0  0  0  0  0  0  0  0  0  0  0
   13.4780   -5.6479   17.7766 C   0  0  0  0  0  0  0  0  0  0  0  0
   14.0267   -6.1892   18.8333 N   0  0  0  0  0  0  0  0  0  0  0  0
   16.4149   -7.2976   20.9839 N   0  0  0  0  0  0  0  0  0  0  0  0
   15.9644   -6.8263   20.0248 C   0  0  0  0  0  0  0  0  0  0  0  0
   16.4542   -3.5393   14.8532 H   0  0  0  0  0  0  0  0  0  0  0  0
   13.7869   -2.6761   11.6987 H   0  0  0  0  0  0  0  0  0  0  0  0
   15.2986   -1.4346   10.8790 H   0  0  0  0  0  0  0  0  0  0  0  0
   17.0234   -1.1761    9.1483 H   0  0  0  0  0  0  0  0  0  0  0  0
   19.7719   -3.3574   11.6113 H   0  0  0  0  0  0  0  0  0  0  0  0
   18.0671   -3.6819   13.2717 H   0  0  0  0  0  0  0  0  0  0  0  0
   20.9263   -3.3808    9.4427 H   0  0  0  0  0  0  0  0  0  0  0  0
   21.1062   -1.9074   10.4186 H   0  0  0  0  0  0  0  0  0  0  0  0
   21.2062   -1.9940    7.3848 H   0  0  0  0  0  0  0  0  0  0  0  0
   22.6038   -1.9752    8.4546 H   0  0  0  0  0  0  0  0  0  0  0  0
   17.2075   -5.9856   17.7859 H   0  0  0  0  0  0  0  0  0  0  0  0
   12.3995   -5.5912   17.7547 H   0  0  0  0  0  0  0  0  0  0  0  0
  1  2  2  0
  2  3  1  0
  2 28  1  0
  3  6  1  0
  3  4  1  0
  4  5  2  0
  4 29  1  0
  5  1  1  0
  6  7  2  0
  7  8  1  0
  7 30  1  0
  8  9  2  0
  8 31  1  0
  9 12  1  0
  9 10  1  0
 10 11  2  0
 10 32  1  0
 11  6  1  0
 11 33  1  0
 12 13  1  0
 13 14  1  0
 13 34  1  0
 13 35  1  0
 14 15  1  0
 14 36  1  0
 14 37  1  0
 15 16  1  0
 15 17  1  0
 18  1  1  0
 18 19  1  0
 20 21  2  0
 21 22  1  0
 21 38  1  0
 22 23  2  0
 23 18  1  0
 23 24  1  0
 24 25  2  0
 24 39  1  0
 25 20  1  0
 26 27  3  0
 27 20  1  0
M  END
>  <minimizedAffinity>  (1) 
-6.87559

>  <mol_id>  (1) 
4906

>  <source_index>  (1) 
0

>  <layer>  (1) 
L2

>  <uniprot>  (1) 
O14757

>  <paff>  (1) 
7.5528000000000004

>  <smiles>  (1) 
N#Cc1cnc(Nc2cn(-c3ccc(OCCN)cc3)cn2)cn1

>  <aimnet_interaction_kcal_mol>  (1) 
-56.733695124299189

$$$$
L2:O14757:10681
     RDKit          3D

 55 59  0  0  0  0  0  0  0  0999 V2000
   15.8013   -1.2029   10.3458 C   0  0  0  0  0  0  0  0  0  0  0  0
   14.8072   -0.2667    9.9758 C   0  0  0  0  0  0  0  0  0  0  0  0
   13.5820   -0.2774   10.4741 N   0  0  0  0  0  0  0  0  0  0  0  0
   13.3052   -1.2127   11.3862 C   0  0  0  0  0  0  0  0  0  0  0  0
   12.1086   -1.1642   12.0024 N   0  0  0  0  0  0  0  0  0  0  0  0
   14.2616   -2.2070   11.7210 C   0  0  0  0  0  0  0  0  0  0  0  0
   15.4781   -2.1726   11.2144 N   0  0  0  0  0  0  0  0  0  0  0  0
   11.8377   -1.9909   12.5321 H   0  0  0  0  0  0  0  0  0  0  0  0
   11.4448   -0.4829   11.6836 H   0  0  0  0  0  0  0  0  0  0  0  0
   19.5562   -1.8376   10.0342 C   0  0  0  0  0  0  0  0  0  0  0  0
   19.8591   -1.0145    8.9480 C   0  0  0  0  0  0  0  0  0  0  0  0
   18.8929   -0.2291    8.3598 C   0  0  0  0  0  0  0  0  0  0  0  0
   17.5949   -0.3649    8.7820 C   0  0  0  0  0  0  0  0  0  0  0  0
   16.6625    0.3325    8.0489 F   0  0  0  0  0  0  0  0  0  0  0  0
   17.1930   -1.1732    9.8518 C   0  0  0  0  0  0  0  0  0  0  0  0
   18.2203   -1.9191   10.4581 C   0  0  0  0  0  0  0  0  0  0  0  0
   22.2954   -4.8477   12.9154 C   0  0  0  0  0  0  0  0  0  0  0  0
   21.8637   -3.8502   11.9637 N   0  0  0  0  0  0  0  0  0  0  0  0
   20.5978   -3.5794   11.6044 C   0  0  0  0  0  0  0  0  0  0  0  0
   20.6453   -2.5326   10.6963 C   0  0  0  0  0  0  0  0  0  0  0  0
   22.0293   -2.2594   10.5772 C   0  0  0  0  0  0  0  0  0  0  0  0
   22.7690   -3.0530   11.3489 N   0  0  0  0  0  0  0  0  0  0  0  0
   13.8688   -3.2859   12.6822 C   0  0  0  0  0  0  0  0  0  0  0  0
   12.6765   -3.6220   12.7912 O   0  0  0  0  0  0  0  0  0  0  0  0
   14.8529   -3.7848   13.4084 N   0  0  0  0  0  0  0  0  0  0  0  0
   15.7927   -3.5492   13.1380 H   0  0  0  0  0  0  0  0  0  0  0  0
   14.6443   -4.5836   14.6155 C   0  0  2  0  0  0  0  0  0  0  0  0
   15.7253   -4.3259   15.6567 C   0  0  0  0  0  0  0  0  0  0  0  0
   16.8368   -5.3671   15.5819 C   0  0  0  0  0  0  0  0  0  0  0  0
   16.9422   -5.8977   14.1810 C   0  0  0  0  0  0  0  0  0  0  0  0
   18.2764   -6.2924   13.6438 C   0  0  0  0  0  0  0  0  0  0  0  0
   17.6319   -5.0379   13.1637 C   0  0  0  0  0  0  0  0  0  0  0  0
   15.7707   -6.6005   13.6819 N   0  0  0  0  0  0  0  0  0  0  0  0
   14.5342   -6.0576   14.2592 C   0  0  0  0  0  0  0  0  0  0  0  0
   15.8383   -7.5801   13.9254 H   0  0  0  0  0  0  0  0  0  0  0  0
   14.9984    0.5457    9.2948 H   0  0  0  0  0  0  0  0  0  0  0  0
   20.8643   -0.9785    8.5570 H   0  0  0  0  0  0  0  0  0  0  0  0
   19.1549    0.5099    7.6190 H   0  0  0  0  0  0  0  0  0  0  0  0
   17.9681   -2.5718   11.2859 H   0  0  0  0  0  0  0  0  0  0  0  0
   21.5176   -5.5981   12.9993 H   0  0  0  0  0  0  0  0  0  0  0  0
   22.4494   -4.3968   13.8929 H   0  0  0  0  0  0  0  0  0  0  0  0
   23.2188   -5.2901   12.5552 H   0  0  0  0  0  0  0  0  0  0  0  0
   19.7810   -4.1298   12.0287 H   0  0  0  0  0  0  0  0  0  0  0  0
   22.5205   -1.5282    9.9567 H   0  0  0  0  0  0  0  0  0  0  0  0
   13.6752   -4.2802   15.0040 H   0  0  0  0  0  0  0  0  0  0  0  0
   15.2679   -4.3080   16.6432 H   0  0  0  0  0  0  0  0  0  0  0  0
   16.1509   -3.3339   15.5219 H   0  0  0  0  0  0  0  0  0  0  0  0
   16.6375   -6.2005   16.2655 H   0  0  0  0  0  0  0  0  0  0  0  0
   17.7884   -4.9256   15.8703 H   0  0  0  0  0  0  0  0  0  0  0  0
   18.3513   -7.1571   12.9899 H   0  0  0  0  0  0  0  0  0  0  0  0
   19.1094   -6.1644   14.3166 H   0  0  0  0  0  0  0  0  0  0  0  0
   17.1855   -5.0278   12.1838 H   0  0  0  0  0  0  0  0  0  0  0  0
   18.0609   -4.1228   13.5278 H   0  0  0  0  0  0  0  0  0  0  0  0
   14.2464   -6.5770   15.1825 H   0  0  0  0  0  0  0  0  0  0  0  0
   13.7137   -6.1911   13.5522 H   0  0  0  0  0  0  0  0  0  0  0  0
  1  2  2  0
  2  3  1  0
  2 36  1  0
  3  4  2  0
  4  5  1  0
  4  6  1  0
  5  8  1  0
  5  9  1  0
  6 23  1  0
  6  7  2  0
  7  1  1  0
 10 11  2  0
 11 12  1  0
 11 37  1  0
 12 13  2  0
 12 38  1  0
 13 14  1  0
 13 15  1  0
 15  1  1  0
 15 16  2  0
 16 10  1  0
 16 39  1  0
 17 18  1  0
 17 40  1  0
 17 41  1  0
 17 42  1  0
 18 19  1  0
 19 20  2  0
 19 43  1  0
 20 10  1  0
 20 21  1  0
 21 22  2  0
 21 44  1  0
 22 18  1  0
 23 24  2  0
 23 25  1  0
 25 27  1  0
 25 26  1  0
 27 28  1  0
 27 45  1  1
 28 29  1  0
 28 46  1  0
 28 47  1  0
 29 30  1  0
 29 48  1  0
 29 49  1  0
 30 31  1  0
 30 33  1  0
 31 32  1  0
 31 50  1  0
 31 51  1  0
 32 30  1  0
 32 52  1  0
 32 53  1  0
 33 34  1  0
 33 35  1  0
 34 27  1  0
 34 54  1  0
 34 55  1  0
M  END
>  <minimizedAffinity>  (2) 
-9.27592

>  <mol_id>  (2) 
10681

>  <source_index>  (2) 
1

>  <layer>  (2) 
L2

>  <uniprot>  (2) 
O14757

>  <paff>  (2) 
7.2595999999999998

>  <smiles>  (2) 
Cn1cc(-c2ccc(F)c(-c3cnc(N)c(C(=O)NC4CCC5(CC5)NC4)n3)c2)cn1

>  <aimnet_interaction_kcal_mol>  (2) 
-67.478435905786952

$$$$
L2:O14757:55958
     RDKit          3D

 45 47  0  0  0  0  0  0  0  0999 V2000
   17.9968   -1.2774    9.7137 C   0  0  0  0  0  0  0  0  0  0  0  0
   18.1042   -0.1430    8.9173 C   0  0  0  0  0  0  0  0  0  0  0  0
   17.0452    0.6007    8.5972 N   0  0  0  0  0  0  0  0  0  0  0  0
   15.8373    0.2341    9.0261 C   0  0  0  0  0  0  0  0  0  0  0  0
   15.6478   -0.8898    9.8078 C   0  0  0  0  0  0  0  0  0  0  0  0
   16.7618   -1.5827   10.3075 C   0  0  0  0  0  0  0  0  0  0  0  0
   16.6427   -2.4824   11.4618 C   0  0  0  0  0  0  0  0  0  0  0  0
   17.5245   -3.3285   12.1076 C   0  0  0  0  0  0  0  0  0  0  0  0
   16.7934   -3.8713   13.1926 C   0  0  0  0  0  0  0  0  0  0  0  0
   15.5379   -3.3994   13.1973 N   0  0  0  0  0  0  0  0  0  0  0  0
   15.4850   -2.5564   12.1711 N   0  0  0  0  0  0  0  0  0  0  0  0
   14.6225   -2.0541   12.0583 H   0  0  0  0  0  0  0  0  0  0  0  0
   17.2822   -4.7055   14.1926 N   0  0  0  0  0  0  0  0  0  0  0  0
   18.2589   -4.5454   14.5593 H   0  0  0  0  0  0  0  0  0  0  0  0
   16.5522   -5.6675   14.8101 C   0  0  0  0  0  0  0  0  0  0  0  0
   15.2821   -6.1038   14.3212 C   0  0  0  0  0  0  0  0  0  0  0  0
   14.5611   -6.9939   14.9610 N   0  0  0  0  0  0  0  0  0  0  0  0
   15.0805   -7.5001   16.0900 C   0  0  0  0  0  0  0  0  0  0  0  0
   16.3486   -7.1341   16.5302 C   0  0  0  0  0  0  0  0  0  0  0  0
   17.0862   -6.2395   15.9011 N   0  0  0  0  0  0  0  0  0  0  0  0
   14.2795   -8.4251   16.8228 C   0  0  0  0  0  0  0  0  0  0  0  0
   13.6090   -9.1919   17.3828 N   0  0  0  0  0  0  0  0  0  0  0  0
   20.2107   -2.0273    9.2067 C   0  0  0  0  0  0  0  0  0  0  0  0
   19.0164   -2.1324    9.9666 O   0  0  0  0  0  0  0  0  0  0  0  0
   14.3990   -1.3975   10.0548 O   0  0  0  0  0  0  0  0  0  0  0  0
   13.3577   -0.4712   10.4051 C   0  0  0  0  0  0  0  0  0  0  0  0
   12.0780   -1.2248   10.6333 C   0  0  1  0  0  0  0  0  0  0  0  0
   11.5844   -1.7036    9.4003 F   0  0  0  0  0  0  0  0  0  0  0  0
   12.1873   -2.3966   11.5787 C   0  0  0  0  0  0  0  0  0  0  0  0
   12.8313   -1.9753   12.8052 N   0  0  0  0  0  0  0  0  0  0  0  0
   12.1840   -1.5805   13.4664 H   0  0  0  0  0  0  0  0  0  0  0  0
   13.2643   -2.7589   13.2769 H   0  0  0  0  0  0  0  0  0  0  0  0
   19.0584    0.2014    8.5464 H   0  0  0  0  0  0  0  0  0  0  0  0
   14.9981    0.8623    8.7569 H   0  0  0  0  0  0  0  0  0  0  0  0
   18.5577   -3.5158   11.8853 H   0  0  0  0  0  0  0  0  0  0  0  0
   14.8767   -5.6916   13.4152 H   0  0  0  0  0  0  0  0  0  0  0  0
   16.7751   -7.5800   17.4194 H   0  0  0  0  0  0  0  0  0  0  0  0
   20.7759   -2.9282    9.4183 H   0  0  0  0  0  0  0  0  0  0  0  0
   20.7895   -1.1488    9.4917 H   0  0  0  0  0  0  0  0  0  0  0  0
   19.9907   -1.9832    8.1412 H   0  0  0  0  0  0  0  0  0  0  0  0
   13.1995    0.2631    9.6172 H   0  0  0  0  0  0  0  0  0  0  0  0
   13.6326    0.0591   11.3151 H   0  0  0  0  0  0  0  0  0  0  0  0
   11.3398   -0.5185   11.0070 H   0  0  0  0  0  0  0  0  0  0  0  0
   12.7675   -3.1794   11.0981 H   0  0  0  0  0  0  0  0  0  0  0  0
   11.1899   -2.7917   11.7600 H   0  0  0  0  0  0  0  0  0  0  0  0
  1  2  2  0
  2  3  1  0
  2 33  1  0
  3  4  2  0
  4  5  1  0
  4 34  1  0
  5 25  1  0
  5  6  2  0
  6  7  1  0
  6  1  1  0
  7  8  2  0
  8  9  1  0
  8 35  1  0
  9 13  1  0
  9 10  2  0
 10 11  1  0
 11  7  1  0
 11 12  1  0
 13 15  1  0
 13 14  1  0
 15 16  2  0
 16 17  1  0
 16 36  1  0
 17 18  2  0
 18 21  1  0
 18 19  1  0
 19 20  2  0
 19 37  1  0
 20 15  1  0
 21 22  3  0
 23 24  1  0
 23 38  1  0
 23 39  1  0
 23 40  1  0
 24  1  1  0
 25 26  1  0
 26 27  1  0
 26 41  1  0
 26 42  1  0
 27 28  1  0
 27 29  1  0
 27 43  1  1
 29 30  1  0
 29 44  1  0
 29 45  1  0
 30 31  1  0
 30 32  1  0
M  END
>  <minimizedAffinity>  (3) 
-6.75926

>  <mol_id>  (3) 
55958

>  <source_index>  (3) 
2

>  <layer>  (3) 
L2

>  <uniprot>  (3) 
O14757

>  <paff>  (3) 
9.2218

>  <smiles>  (3) 
COc1cncc(OC[C@@H](F)CN)c1-c1cc(Nc2cnc(C#N)cn2)n[nH]1

>  <aimnet_interaction_kcal_mol>  (3) 
-64.918860572502865

$$$$
L2:O14757:60774
     RDKit          3D

 49 52  0  0  0  0  0  0  0  0999 V2000
   18.6580   -1.7990    9.6460 C   0  0  0  0  0  0  0  0  0  0  0  0
   18.6697   -0.6985    8.7786 C   0  0  0  0  0  0  0  0  0  0  0  0
   17.5050   -0.0305    8.5285 C   0  0  0  0  0  0  0  0  0  0  0  0
   16.3254   -0.3627    9.0775 N   0  0  0  0  0  0  0  0  0  0  0  0
   16.3216   -1.3558    9.9459 C   0  0  0  0  0  0  0  0  0  0  0  0
   17.4628   -2.1252   10.2900 C   0  0  0  0  0  0  0  0  0  0  0  0
   17.2903   -3.1433   11.3270 C   0  0  0  0  0  0  0  0  0  0  0  0
   17.5992   -3.1400   12.6585 C   0  0  0  0  0  0  0  0  0  0  0  0
   17.0550   -4.3430   13.1753 C   0  0  0  0  0  0  0  0  0  0  0  0
   16.4441   -5.0447   12.2168 N   0  0  0  0  0  0  0  0  0  0  0  0
   16.6045   -4.2978   11.1054 N   0  0  0  0  0  0  0  0  0  0  0  0
   16.2773   -4.6660   10.2340 H   0  0  0  0  0  0  0  0  0  0  0  0
   17.2754   -4.8055   14.4623 N   0  0  0  0  0  0  0  0  0  0  0  0
   18.2402   -4.6242   14.8309 H   0  0  0  0  0  0  0  0  0  0  0  0
   16.3200   -5.1264   15.3781 C   0  0  0  0  0  0  0  0  0  0  0  0
   16.7557   -5.6097   16.6349 C   0  0  0  0  0  0  0  0  0  0  0  0
   15.9109   -5.8637   17.5995 N   0  0  0  0  0  0  0  0  0  0  0  0
   14.6087   -5.6329   17.3521 C   0  0  0  0  0  0  0  0  0  0  0  0
   14.1737   -5.2142   16.1015 C   0  0  0  0  0  0  0  0  0  0  0  0
   15.0249   -4.9783   15.1099 N   0  0  0  0  0  0  0  0  0  0  0  0
   13.7122   -5.8202   18.4393 C   0  0  0  0  0  0  0  0  0  0  0  0
   13.0142   -5.9638   19.3554 N   0  0  0  0  0  0  0  0  0  0  0  0
   20.0980   -3.4385   10.7273 C   0  0  0  0  0  0  0  0  0  0  0  0
   19.8394   -2.4470    9.7139 O   0  0  0  0  0  0  0  0  0  0  0  0
   15.2016   -1.6940   10.5970 O   0  0  0  0  0  0  0  0  0  0  0  0
   13.9159   -1.2338   10.1360 C   0  0  0  0  0  0  0  0  0  0  0  0
   12.8851   -1.4342   11.2160 C   0  0  0  0  0  0  0  0  0  0  0  0
   13.1106   -2.3953   12.3365 C   0  0  0  0  0  0  0  0  0  0  0  0
   12.1406   -2.7319   11.2697 C   0  0  0  0  0  0  0  0  0  0  0  0
   12.0307   -0.2207   11.4764 C   0  0  0  0  0  0  0  0  0  0  0  0
   12.8008    0.9873   11.7514 N   0  0  0  0  0  0  0  0  0  0  0  0
   13.7280    0.6905   12.0103 H   0  0  0  0  0  0  0  0  0  0  0  0
   12.9351    1.5139   10.9003 H   0  0  0  0  0  0  0  0  0  0  0  0
   19.5954   -0.3976    8.3151 H   0  0  0  0  0  0  0  0  0  0  0  0
   17.5083    0.8005    7.8373 H   0  0  0  0  0  0  0  0  0  0  0  0
   18.1637   -2.4153   13.2195 H   0  0  0  0  0  0  0  0  0  0  0  0
   17.8083   -5.7802   16.8197 H   0  0  0  0  0  0  0  0  0  0  0  0
   13.1211   -5.0488   15.9177 H   0  0  0  0  0  0  0  0  0  0  0  0
   21.1081   -3.7857   10.5360 H   0  0  0  0  0  0  0  0  0  0  0  0
   19.4139   -4.2762   10.6478 H   0  0  0  0  0  0  0  0  0  0  0  0
   20.0217   -3.0085   11.7235 H   0  0  0  0  0  0  0  0  0  0  0  0
   13.6531   -1.7941    9.2385 H   0  0  0  0  0  0  0  0  0  0  0  0
   14.0141   -0.1956    9.8333 H   0  0  0  0  0  0  0  0  0  0  0  0
   12.7306   -2.0961   13.3007 H   0  0  0  0  0  0  0  0  0  0  0  0
   14.0140   -2.9803   12.3797 H   0  0  0  0  0  0  0  0  0  0  0  0
   11.0870   -2.6705   11.5008 H   0  0  0  0  0  0  0  0  0  0  0  0
   12.3839   -3.4970   10.5558 H   0  0  0  0  0  0  0  0  0  0  0  0
   11.3785   -0.4236   12.3280 H   0  0  0  0  0  0  0  0  0  0  0  0
   11.3825   -0.0632   10.6133 H   0  0  0  0  0  0  0  0  0  0  0  0
  1  2  2  0
  2  3  1  0
  2 34  1  0
  3  4  2  0
  3 35  1  0
  4  5  1  0
  5 25  1  0
  5  6  2  0
  6  7  1  0
  6  1  1  0
  7  8  2  0
  8  9  1  0
  8 36  1  0
  9 13  1  0
  9 10  2  0
 10 11  1  0
 11  7  1  0
 11 12  1  0
 13 15  1  0
 13 14  1  0
 15 16  2  0
 16 17  1  0
 16 37  1  0
 17 18  2  0
 18 21  1  0
 18 19  1  0
 19 20  2  0
 19 38  1  0
 20 15  1  0
 21 22  3  0
 23 24  1  0
 23 39  1  0
 23 40  1  0
 23 41  1  0
 24  1  1  0
 25 26  1  0
 26 27  1  0
 26 42  1  0
 26 43  1  0
 27 30  1  0
 27 28  1  0
 28 29  1  0
 28 44  1  0
 28 45  1  0
 29 27  1  0
 29 46  1  0
 29 47  1  0
 30 31  1  0
 30 48  1  0
 30 49  1  0
 31 32  1  0
 31 33  1  0
M  END
>  <minimizedAffinity>  (4) 
-7.16209

>  <mol_id>  (4) 
60774

>  <source_index>  (4) 
3

>  <layer>  (4) 
L2

>  <uniprot>  (4) 
O14757

>  <paff>  (4) 
9.4948999999999995

>  <smiles>  (4) 
COc1ccnc(OCC2(CN)CC2)c1-c1cc(Nc2cnc(C#N)cn2)n[nH]1

>  <aimnet_interaction_kcal_mol>  (4) 
-66.800148724838877

$$$$
L2:O14757:60923
     RDKit          3D

 44 47  0  0  0  0  0  0  0  0999 V2000
   13.4463   -1.9949   12.1022 C   0  0  0  0  0  0  0  0  0  0  0  0
   14.3004   -1.5214   11.1670 N   0  0  0  0  0  0  0  0  0  0  0  0
   13.9075   -0.5090   10.4072 C   0  0  0  0  0  0  0  0  0  0  0  0
   12.5770   -0.0259   10.4513 C   0  0  0  0  0  0  0  0  0  0  0  0
   11.7094   -0.5638   11.2677 N   0  0  0  0  0  0  0  0  0  0  0  0
   12.0863   -1.5530   12.0867 C   0  0  0  0  0  0  0  0  0  0  0  0
   17.7368   -6.7096   14.5261 C   0  0  0  0  0  0  0  0  0  0  0  0
   16.5904   -5.8986   14.8188 N   0  0  0  0  0  0  0  0  0  0  0  0
   16.7794   -4.4366   14.8575 C   0  0  0  0  0  0  0  0  0  0  0  0
   15.4336   -4.2733   14.1642 C   0  0  0  0  0  0  0  0  0  0  0  0
   14.2854   -3.8988   15.0767 C   0  0  0  0  0  0  0  0  0  0  0  0
   13.1886   -3.3696   14.1640 C   0  0  0  0  0  0  0  0  0  0  0  0
   13.9245   -2.8420   12.9997 N   0  0  0  0  0  0  0  0  0  0  0  0
   15.3223   -3.2947   13.0018 C   0  0  0  0  0  0  0  0  0  0  0  0
   15.5405   -5.7613   13.8120 C   0  0  0  0  0  0  0  0  0  0  0  0
   14.7917    0.0848    9.5447 N   0  0  0  0  0  0  0  0  0  0  0  0
   14.4753    0.9347    9.0763 H   0  0  0  0  0  0  0  0  0  0  0  0
   16.1269   -0.2285    9.3941 C   0  0  0  0  0  0  0  0  0  0  0  0
   16.8809   -1.2663    9.8693 C   0  0  0  0  0  0  0  0  0  0  0  0
   18.1660   -1.0164    9.4098 N   0  0  0  0  0  0  0  0  0  0  0  0
   18.1328    0.1372    8.6799 C   0  0  0  0  0  0  0  0  0  0  0  0
   16.9161    0.6242    8.6475 N   0  0  0  0  0  0  0  0  0  0  0  0
   19.2964   -1.8631    9.6995 C   0  0  0  0  0  0  0  0  0  0  0  0
   20.1434   -1.8693    8.6311 F   0  0  0  0  0  0  0  0  0  0  0  0
   19.9772   -1.3734   10.7616 F   0  0  0  0  0  0  0  0  0  0  0  0
   11.0639   -2.0967   12.8964 C   0  0  0  0  0  0  0  0  0  0  0  0
   10.1769   -2.5004   13.5282 N   0  0  0  0  0  0  0  0  0  0  0  0
   12.2446    0.7871    9.8271 H   0  0  0  0  0  0  0  0  0  0  0  0
   18.5044   -6.5214   15.2739 H   0  0  0  0  0  0  0  0  0  0  0  0
   18.1846   -6.4610   13.5481 H   0  0  0  0  0  0  0  0  0  0  0  0
   17.4618   -7.7624   14.5407 H   0  0  0  0  0  0  0  0  0  0  0  0
   17.6253   -4.0836   14.2667 H   0  0  0  0  0  0  0  0  0  0  0  0
   16.8765   -4.0136   15.8541 H   0  0  0  0  0  0  0  0  0  0  0  0
   14.6052   -3.1225   15.7659 H   0  0  0  0  0  0  0  0  0  0  0  0
   13.9383   -4.7254   15.6878 H   0  0  0  0  0  0  0  0  0  0  0  0
   12.6066   -2.5888   14.6270 H   0  0  0  0  0  0  0  0  0  0  0  0
   12.5016   -4.1530   13.8570 H   0  0  0  0  0  0  0  0  0  0  0  0
   16.0025   -2.4477   13.1392 H   0  0  0  0  0  0  0  0  0  0  0  0
   15.5562   -3.7433   12.0352 H   0  0  0  0  0  0  0  0  0  0  0  0
   15.8906   -5.9224   12.7796 H   0  0  0  0  0  0  0  0  0  0  0  0
   14.6474   -6.3716   13.9744 H   0  0  0  0  0  0  0  0  0  0  0  0
   16.6491   -2.1104   10.4857 H   0  0  0  0  0  0  0  0  0  0  0  0
   18.9987    0.5729    8.2173 H   0  0  0  0  0  0  0  0  0  0  0  0
   18.9653   -2.8814    9.9121 H   0  0  0  0  0  0  0  0  0  0  0  0
  1  2  2  0
  2  3  1  0
  3 16  1  0
  3  4  2  0
  4  5  1  0
  4 28  1  0
  5  6  2  0
  6 26  1  0
  6  1  1  0
  7  8  1  0
  7 29  1  0
  7 30  1  0
  7 31  1  0
  8  9  1  0
  9 10  1  0
  9 32  1  0
  9 33  1  0
 10 11  1  0
 10 15  1  0
 11 12  1  0
 11 34  1  0
 11 35  1  0
 12 13  1  0
 12 36  1  0
 12 37  1  0
 13  1  1  0
 13 14  1  0
 14 10  1  0
 14 38  1  0
 14 39  1  0
 15  8  1  0
 15 40  1  0
 15 41  1  0
 16 18  1  0
 16 17  1  0
 18 19  2  0
 19 20  1  0
 19 42  1  0
 20 23  1  0
 20 21  1  0
 21 22  2  0
 21 43  1  0
 22 18  1  0
 23 24  1  0
 23 25  1  0
 23 44  1  0
 26 27  3  0
M  END
>  <minimizedAffinity>  (5) 
-7.78914

>  <mol_id>  (5) 
60923

>  <source_index>  (5) 
4

>  <layer>  (5) 
L2

>  <uniprot>  (5) 
O14757

>  <paff>  (5) 
7.8539000000000003

>  <smiles>  (5) 
CN1CC2(CCN(c3nc(Nc4cn(C(F)F)cn4)cnc3C#N)C2)C1

>  <aimnet_interaction_kcal_mol>  (5) 
-63.692816981800775

$$$$
L2:O14757:64281
     RDKit          3D

 50 53  0  0  0  0  0  0  0  0999 V2000
   13.2561   -1.4562   11.5902 C   0  0  0  0  0  0  0  0  0  0  0  0
   14.5393   -1.9238   11.4757 C   0  0  0  0  0  0  0  0  0  0  0  0
   15.0912   -1.2045   10.4349 N   0  0  0  0  0  0  0  0  0  0  0  0
   14.1173   -0.3538    9.9888 C   0  0  0  0  0  0  0  0  0  0  0  0
   12.9955   -0.5052   10.6486 N   0  0  0  0  0  0  0  0  0  0  0  0
   16.4380   -1.3040    9.9603 C   0  0  0  0  0  0  0  0  0  0  0  0
   17.1713   -2.4712   10.1075 C   0  0  0  0  0  0  0  0  0  0  0  0
   18.4919   -2.5365    9.6992 C   0  0  0  0  0  0  0  0  0  0  0  0
   19.1360   -1.4373    9.1031 C   0  0  0  0  0  0  0  0  0  0  0  0
   18.3815   -0.2528    8.9806 C   0  0  0  0  0  0  0  0  0  0  0  0
   17.0602   -0.2083    9.3802 C   0  0  0  0  0  0  0  0  0  0  0  0
   20.4376   -1.5198    8.6705 N   0  0  0  0  0  0  0  0  0  0  0  0
   21.1759   -2.7737    8.7561 C   0  0  0  0  0  0  0  0  0  0  0  0
   22.6679   -2.5200    8.6415 C   0  0  0  0  0  0  0  0  0  0  0  0
   23.0505   -1.7834    7.4434 N   0  0  0  0  0  0  0  0  0  0  0  0
   22.0048   -0.9571    6.8819 C   0  0  0  0  0  0  0  0  0  0  0  0
   21.1017   -0.4281    7.9758 C   0  0  0  0  0  0  0  0  0  0  0  0
   23.8880   -2.4412    6.4810 C   0  0  0  0  0  0  0  0  0  0  0  0
   23.2848   -3.5423    5.6300 C   0  0  0  0  0  0  0  0  0  0  0  0
   23.0469   -4.7022    6.3735 F   0  0  0  0  0  0  0  0  0  0  0  0
   12.3228   -1.8696   12.5199 N   0  0  0  0  0  0  0  0  0  0  0  0
   12.4997   -2.7219   13.0326 H   0  0  0  0  0  0  0  0  0  0  0  0
    8.6787   -0.3687   13.4095 C   0  0  0  0  0  0  0  0  0  0  0  0
    9.7035    0.4729   13.0334 C   0  0  0  0  0  0  0  0  0  0  0  0
   10.9158    0.0337   12.6872 N   0  0  0  0  0  0  0  0  0  0  0  0
   11.1129   -1.2788   12.7837 C   0  0  0  0  0  0  0  0  0  0  0  0
   10.0759   -2.1250   13.2176 C   0  0  0  0  0  0  0  0  0  0  0  0
    8.8783   -1.6882   13.5026 N   0  0  0  0  0  0  0  0  0  0  0  0
    6.3542    0.5396   14.0898 N   0  0  0  0  0  0  0  0  0  0  0  0
    7.3857    0.1260   13.7621 C   0  0  0  0  0  0  0  0  0  0  0  0
   15.0917   -2.6401   12.0551 H   0  0  0  0  0  0  0  0  0  0  0  0
   14.2518    0.3558    9.1963 H   0  0  0  0  0  0  0  0  0  0  0  0
   16.7160   -3.3547   10.5338 H   0  0  0  0  0  0  0  0  0  0  0  0
   19.0138   -3.4665    9.8484 H   0  0  0  0  0  0  0  0  0  0  0  0
   18.8344    0.6565    8.6212 H   0  0  0  0  0  0  0  0  0  0  0  0
   16.5007    0.7149    9.2984 H   0  0  0  0  0  0  0  0  0  0  0  0
   20.8543   -3.4915    7.9939 H   0  0  0  0  0  0  0  0  0  0  0  0
   20.9887   -3.2444    9.7164 H   0  0  0  0  0  0  0  0  0  0  0  0
   23.1875   -3.4740    8.6648 H   0  0  0  0  0  0  0  0  0  0  0  0
   22.9809   -1.9654    9.5329 H   0  0  0  0  0  0  0  0  0  0  0  0
   21.3809   -1.4825    6.1458 H   0  0  0  0  0  0  0  0  0  0  0  0
   22.4579   -0.1179    6.3567 H   0  0  0  0  0  0  0  0  0  0  0  0
   20.3702    0.2370    7.5284 H   0  0  0  0  0  0  0  0  0  0  0  0
   21.6993    0.1768    8.6618 H   0  0  0  0  0  0  0  0  0  0  0  0
   24.7556   -2.8616    6.9926 H   0  0  0  0  0  0  0  0  0  0  0  0
   24.2718   -1.6790    5.7976 H   0  0  0  0  0  0  0  0  0  0  0  0
   23.9796   -3.8078    4.8298 H   0  0  0  0  0  0  0  0  0  0  0  0
   22.3362   -3.2455    5.1850 H   0  0  0  0  0  0  0  0  0  0  0  0
    9.5324    1.5385   13.0294 H   0  0  0  0  0  0  0  0  0  0  0  0
   10.2870   -3.1765   13.3430 H   0  0  0  0  0  0  0  0  0  0  0  0
  1  2  2  0
  2  3  1  0
  2 31  1  0
  3  6  1  0
  3  4  1  0
  4  5  2  0
  4 32  1  0
  5  1  1  0
  6  7  2  0
  7  8  1  0
  7 33  1  0
  8  9  2  0
  8 34  1  0
  9 12  1  0
  9 10  1  0
 10 11  2  0
 10 35  1  0
 11  6  1  0
 11 36  1  0
 12 13  1  0
 13 14  1  0
 13 37  1  0
 13 38  1  0
 14 15  1  0
 14 39  1  0
 14 40  1  0
 15 18  1  0
 15 16  1  0
 16 17  1  0
 16 41  1  0
 16 42  1  0
 17 12  1  0
 17 43  1  0
 17 44  1  0
 18 19  1  0
 18 45  1  0
 18 46  1  0
 19 20  1  0
 19 47  1  0
 19 48  1  0
 21  1  1  0
 21 22  1  0
 23 24  2  0
 24 25  1  0
 24 49  1  0
 25 26  2  0
 26 21  1  0
 26 27  1  0
 27 28  2  0
 27 50  1  0
 28 23  1  0
 29 30  3  0
 30 23  1  0
M  END
>  <minimizedAffinity>  (6) 
-7.27905

>  <mol_id>  (6) 
64281

>  <source_index>  (6) 
5

>  <layer>  (6) 
L2

>  <uniprot>  (6) 
O14757

>  <paff>  (6) 
7.3978999999999999

>  <smiles>  (6) 
N#Cc1cnc(Nc2cn(-c3ccc(N4CCN(CCF)CC4)cc3)cn2)cn1

>  <aimnet_interaction_kcal_mol>  (6) 
-33.739176414228481

$$$$
L2:O14757:72416
     RDKit          3D

 52 55  0  0  0  0  0  0  0  0999 V2000
   12.1146   -3.2151   13.7786 N   0  0  0  0  0  0  0  0  0  0  0  0
   13.1473   -2.8936   12.9893 C   0  0  0  0  0  0  0  0  0  0  0  0
   12.9596   -1.9238   12.0727 N   0  0  0  0  0  0  0  0  0  0  0  0
   13.9921   -1.5754   11.3235 C   0  0  0  0  0  0  0  0  0  0  0  0
   15.2602   -2.1355   11.4848 C   0  0  0  0  0  0  0  0  0  0  0  0
   15.4385   -3.0851   12.4121 N   0  0  0  0  0  0  0  0  0  0  0  0
   14.4212   -3.5273   13.0985 C   0  0  0  0  0  0  0  0  0  0  0  0
   11.3493   -2.5663   13.8463 H   0  0  0  0  0  0  0  0  0  0  0  0
   12.1552   -3.9522   14.4736 H   0  0  0  0  0  0  0  0  0  0  0  0
   16.4160   -1.7310   10.6777 C   0  0  0  0  0  0  0  0  0  0  0  0
   16.1967   -0.8785    9.6607 N   0  0  0  0  0  0  0  0  0  0  0  0
   17.2921   -0.4692    9.0130 C   0  0  0  0  0  0  0  0  0  0  0  0
   18.5631   -0.9086    9.3143 C   0  0  0  0  0  0  0  0  0  0  0  0
   18.6760   -1.8557   10.3402 C   0  0  0  0  0  0  0  0  0  0  0  0
   17.5938   -2.2425   11.0258 N   0  0  0  0  0  0  0  0  0  0  0  0
   19.9235   -2.4693   10.7350 C   0  0  0  0  0  0  0  0  0  0  0  0
   21.2251   -2.3093   10.2119 C   0  0  0  0  0  0  0  0  0  0  0  0
   22.1153   -3.0276   10.8800 N   0  0  0  0  0  0  0  0  0  0  0  0
   21.3818   -3.6744   11.8294 N   0  0  0  0  0  0  0  0  0  0  0  0
   20.0762   -3.3670   11.7798 C   0  0  0  0  0  0  0  0  0  0  0  0
   22.0279   -4.5582   12.7667 C   0  0  0  0  0  0  0  0  0  0  0  0
   22.1905   -5.9601   12.2273 C   0  0  0  0  0  0  0  0  0  0  0  0
   22.7583   -6.7542   13.1723 F   0  0  0  0  0  0  0  0  0  0  0  0
   22.9926   -6.0097   11.1370 F   0  0  0  0  0  0  0  0  0  0  0  0
   21.0086   -6.5216   11.8909 F   0  0  0  0  0  0  0  0  0  0  0  0
   14.6459   -4.7441   13.9580 C   0  0  0  0  0  0  0  0  0  0  0  0
   13.7844   -5.6267   14.0245 O   0  0  0  0  0  0  0  0  0  0  0  0
   15.8355   -4.7671   14.5532 N   0  0  0  0  0  0  0  0  0  0  0  0
   16.3948   -3.9246   14.5162 H   0  0  0  0  0  0  0  0  0  0  0  0
   16.5090   -5.9809   15.0236 C   0  0  1  0  0  0  0  0  0  0  0  0
   17.4985   -6.4900   13.9671 C   0  0  0  0  0  0  0  0  0  0  0  0
   18.6683   -7.2273   14.6048 C   0  0  0  0  0  0  0  0  0  0  0  0
   18.2201   -7.8829   15.8916 C   0  0  0  0  0  0  0  0  0  0  0  0
   17.8221   -6.8956   16.9045 N   0  0  0  0  0  0  0  0  0  0  0  0
   17.2226   -5.6793   16.3263 C   0  0  0  0  0  0  0  0  0  0  0  0
   18.6541   -6.5964   17.3946 H   0  0  0  0  0  0  0  0  0  0  0  0
   13.8344   -0.8155   10.5654 H   0  0  0  0  0  0  0  0  0  0  0  0
   17.1374    0.2422    8.2068 H   0  0  0  0  0  0  0  0  0  0  0  0
   19.4096   -0.5265    8.7660 H   0  0  0  0  0  0  0  0  0  0  0  0
   21.5471   -1.7160    9.3696 H   0  0  0  0  0  0  0  0  0  0  0  0
   19.3553   -3.7362   12.4907 H   0  0  0  0  0  0  0  0  0  0  0  0
   21.4214   -4.5955   13.6698 H   0  0  0  0  0  0  0  0  0  0  0  0
   23.0019   -4.1491   13.0077 H   0  0  0  0  0  0  0  0  0  0  0  0
   15.7380   -6.7297   15.1977 H   0  0  0  0  0  0  0  0  0  0  0  0
   17.8837   -5.6484   13.3992 H   0  0  0  0  0  0  0  0  0  0  0  0
   16.9530   -7.1194   13.2677 H   0  0  0  0  0  0  0  0  0  0  0  0
   19.4660   -6.5130   14.8206 H   0  0  0  0  0  0  0  0  0  0  0  0
   19.0740   -7.9754   13.9194 H   0  0  0  0  0  0  0  0  0  0  0  0
   19.0119   -8.5030   16.3158 H   0  0  0  0  0  0  0  0  0  0  0  0
   17.3810   -8.5457   15.6770 H   0  0  0  0  0  0  0  0  0  0  0  0
   17.9876   -4.9241   16.1136 H   0  0  0  0  0  0  0  0  0  0  0  0
   16.5264   -5.2382   17.0429 H   0  0  0  0  0  0  0  0  0  0  0  0
  1  2  1  0
  1  8  1  0
  1  9  1  0
  2  3  2  0
  3  4  1  0
  4  5  2  0
  4 37  1  0
  5 10  1  0
  5  6  1  0
  6  7  2  0
  7 26  1  0
  7  2  1  0
 10 11  2  0
 11 12  1  0
 12 13  2  0
 12 38  1  0
 13 14  1  0
 13 39  1  0
 14 16  1  0
 14 15  2  0
 15 10  1  0
 16 17  1  0
 17 18  2  0
 17 40  1  0
 18 19  1  0
 19 21  1  0
 19 20  1  0
 20 16  2  0
 20 41  1  0
 21 22  1  0
 21 42  1  0
 21 43  1  0
 22 23  1  0
 22 24  1  0
 22 25  1  0
 26 27  2  0
 26 28  1  0
 28 30  1  0
 28 29  1  0
 30 31  1  0
 30 44  1  1
 31 32  1  0
 31 45  1  0
 31 46  1  0
 32 33  1  0
 32 47  1  0
 32 48  1  0
 33 34  1  0
 33 49  1  0
 33 50  1  0
 34 35  1  0
 34 36  1  0
 35 30  1  0
 35 51  1  0
 35 52  1  0
M  END
>  <minimizedAffinity>  (7) 
-7.96093

>  <mol_id>  (7) 
72416

>  <source_index>  (7) 
6

>  <layer>  (7) 
L2

>  <uniprot>  (7) 
O14757

>  <paff>  (7) 
6.2595999999999998

>  <smiles>  (7) 
Nc3ncc(c2nccc(c1cnn(CC(F)(F)F)c1)n2)nc3C(=O)N[C@H]4CCCNC4

>  <aimnet_interaction_kcal_mol>  (7) 
-61.453493919696882

$$$$
L2:O14757:111705
     RDKit          3D

 50 53  0  0  0  0  0  0  0  0999 V2000
   14.2278   -6.0294   16.2149 N   0  0  0  0  0  0  0  0  0  0  0  0
   14.5673   -6.0189   17.5314 C   0  0  0  0  0  0  0  0  0  0  0  0
   13.6999   -6.6832   18.2590 N   0  0  0  0  0  0  0  0  0  0  0  0
   12.7371   -7.1033   17.3831 C   0  0  0  0  0  0  0  0  0  0  0  0
   13.0504   -6.7337   16.0975 C   0  0  0  0  0  0  0  0  0  0  0  0
   13.0531   -4.4047   14.0117 C   0  0  0  0  0  0  0  0  0  0  0  0
   14.4999   -4.7844   14.0973 C   0  0  0  0  0  0  0  0  0  0  0  0
   15.3555   -4.3734   13.0877 C   0  0  0  0  0  0  0  0  0  0  0  0
   16.7345   -4.6443   13.1036 C   0  0  0  0  0  0  0  0  0  0  0  0
   17.2645   -5.2640   14.2515 C   0  0  0  0  0  0  0  0  0  0  0  0
   16.4158   -5.6941   15.2402 C   0  0  0  0  0  0  0  0  0  0  0  0
   15.0405   -5.4995   15.1649 C   0  0  0  0  0  0  0  0  0  0  0  0
   17.5324   -4.3413   12.0256 N   0  0  0  0  0  0  0  0  0  0  0  0
   18.9180   -3.9077   12.1519 C   0  0  0  0  0  0  0  0  0  0  0  0
   19.0255   -2.4235   11.8367 C   0  0  0  0  0  0  0  0  0  0  0  0
   18.4288   -2.0066   10.5743 N   0  0  0  0  0  0  0  0  0  0  0  0
   19.2839   -2.2238    9.4342 C   0  0  0  0  0  0  0  0  0  0  0  0
   17.0863   -2.5348   10.4461 C   0  0  0  0  0  0  0  0  0  0  0  0
   17.0035   -4.0312   10.7237 C   0  0  0  0  0  0  0  0  0  0  0  0
   11.7264   -7.8652   17.9497 N   0  0  0  0  0  0  0  0  0  0  0  0
   11.9515   -8.1229   18.9009 H   0  0  0  0  0  0  0  0  0  0  0  0
   10.4114   -7.9999   17.6616 C   0  0  0  0  0  0  0  0  0  0  0  0
    9.7807   -7.4557   16.5162 C   0  0  0  0  0  0  0  0  0  0  0  0
    8.4842   -7.5710   16.3126 N   0  0  0  0  0  0  0  0  0  0  0  0
    7.7567   -8.2281   17.2412 C   0  0  0  0  0  0  0  0  0  0  0  0
    8.3790   -8.7840   18.3533 C   0  0  0  0  0  0  0  0  0  0  0  0
    9.6844   -8.6972   18.5627 N   0  0  0  0  0  0  0  0  0  0  0  0
    6.3623   -8.4149   17.0269 C   0  0  0  0  0  0  0  0  0  0  0  0
    5.2343   -8.6433   16.8723 N   0  0  0  0  0  0  0  0  0  0  0  0
   15.4100   -5.4586   17.9008 H   0  0  0  0  0  0  0  0  0  0  0  0
   12.5486   -6.8161   15.1548 H   0  0  0  0  0  0  0  0  0  0  0  0
   12.9673   -3.4340   13.5280 H   0  0  0  0  0  0  0  0  0  0  0  0
   12.5578   -4.3477   14.9747 H   0  0  0  0  0  0  0  0  0  0  0  0
   12.4986   -5.1246   13.4062 H   0  0  0  0  0  0  0  0  0  0  0  0
   14.9317   -3.7746   12.2938 H   0  0  0  0  0  0  0  0  0  0  0  0
   18.3313   -5.3383   14.3970 H   0  0  0  0  0  0  0  0  0  0  0  0
   16.8381   -6.1980   16.1001 H   0  0  0  0  0  0  0  0  0  0  0  0
   19.5418   -4.4895   11.4712 H   0  0  0  0  0  0  0  0  0  0  0  0
   19.2737   -4.0699   13.1728 H   0  0  0  0  0  0  0  0  0  0  0  0
   20.0780   -2.1516   11.8156 H   0  0  0  0  0  0  0  0  0  0  0  0
   18.5575   -1.8652   12.6466 H   0  0  0  0  0  0  0  0  0  0  0  0
   20.2038   -1.6562    9.5706 H   0  0  0  0  0  0  0  0  0  0  0  0
   18.7922   -1.8397    8.5401 H   0  0  0  0  0  0  0  0  0  0  0  0
   19.5652   -3.2687    9.2612 H   0  0  0  0  0  0  0  0  0  0  0  0
   16.7161   -2.3206    9.4428 H   0  0  0  0  0  0  0  0  0  0  0  0
   16.4440   -2.0135   11.1589 H   0  0  0  0  0  0  0  0  0  0  0  0
   17.5954   -4.5525    9.9729 H   0  0  0  0  0  0  0  0  0  0  0  0
   15.9905   -4.3971   10.6355 H   0  0  0  0  0  0  0  0  0  0  0  0
   10.3534   -6.8860   15.8052 H   0  0  0  0  0  0  0  0  0  0  0  0
    7.8031   -9.3306   19.0896 H   0  0  0  0  0  0  0  0  0  0  0  0
  1  2  1  0
  2  3  2  0
  2 30  1  0
  3  4  1  0
  4 20  1  0
  4  5  2  0
  5  1  1  0
  5 31  1  0
  6  7  1  0
  6 32  1  0
  6 33  1  0
  6 34  1  0
  7  8  2  0
  8  9  1  0
  8 35  1  0
  9 13  1  0
  9 10  2  0
 10 11  1  0
 10 36  1  0
 11 12  2  0
 11 37  1  0
 12  1  1  0
 12  7  1  0
 13 14  1  0
 14 15  1  0
 14 38  1  0
 14 39  1  0
 15 16  1  0
 15 40  1  0
 15 41  1  0
 16 17  1  0
 16 18  1  0
 17 42  1  0
 17 43  1  0
 17 44  1  0
 18 19  1  0
 18 45  1  0
 18 46  1  0
 19 13  1  0
 19 47  1  0
 19 48  1  0
 20 22  1  0
 20 21  1  0
 22 23  2  0
 23 24  1  0
 23 49  1  0
 24 25  2  0
 25 28  1  0
 25 26  1  0
 26 27  2  0
 26 50  1  0
 27 22  1  0
 28 29  3  0
M  END
>  <minimizedAffinity>  (8) 
-7.55830

>  <mol_id>  (8) 
111705

>  <source_index>  (8) 
7

>  <layer>  (8) 
L2

>  <uniprot>  (8) 
O14757

>  <paff>  (8) 
6.3334999999999999

>  <smiles>  (8) 
Cc1cc(N2CCN(C)CC2)ccc1-n1cnc(Nc2cnc(C#N)cn2)c1

>  <aimnet_interaction_kcal_mol>  (8) 
-63.864533546465665

$$$$
L2:O14757:124280
     RDKit          3D

 47 51  0  0  0  0  0  0  0  0999 V2000
   16.6650   -3.0656   11.9877 C   0  0  0  0  0  0  0  0  0  0  0  0
   16.0721   -2.1504   11.1320 C   0  0  0  0  0  0  0  0  0  0  0  0
   16.7442   -1.7639    9.9502 C   0  0  0  0  0  0  0  0  0  0  0  0
   17.9558   -2.1549    9.6256 N   0  0  0  0  0  0  0  0  0  0  0  0
   18.5715   -3.0193   10.4708 C   0  0  0  0  0  0  0  0  0  0  0  0
   19.9258   -3.3438   10.2859 C   0  0  0  0  0  0  0  0  0  0  0  0
   20.4930   -4.2626   11.1200 C   0  0  0  0  0  0  0  0  0  0  0  0
   19.6926   -4.9143   12.0799 C   0  0  0  0  0  0  0  0  0  0  0  0
   18.4150   -4.6657   12.2526 N   0  0  0  0  0  0  0  0  0  0  0  0
   17.9010   -3.6221   11.5637 C   0  0  0  0  0  0  0  0  0  0  0  0
   15.2069   -4.0062   15.2129 C   0  0  0  0  0  0  0  0  0  0  0  0
   15.9621   -4.4534   14.1067 C   0  0  0  0  0  0  0  0  0  0  0  0
   16.1014   -3.3335   13.3029 C   0  0  0  0  0  0  0  0  0  0  0  0
   15.4811   -2.3236   13.9810 N   0  0  0  0  0  0  0  0  0  0  0  0
   14.9492   -2.7012   15.1367 N   0  0  0  0  0  0  0  0  0  0  0  0
   15.4995   -1.3475   13.7477 H   0  0  0  0  0  0  0  0  0  0  0  0
   14.7001   -4.6588   16.3405 N   0  0  0  0  0  0  0  0  0  0  0  0
   14.6221   -4.0537   17.1804 H   0  0  0  0  0  0  0  0  0  0  0  0
   11.9798   -7.5786   16.1416 C   0  0  0  0  0  0  0  0  0  0  0  0
   12.2978   -6.9574   17.3481 C   0  0  0  0  0  0  0  0  0  0  0  0
   13.2568   -6.0623   17.4451 N   0  0  0  0  0  0  0  0  0  0  0  0
   13.8721   -5.7108   16.2973 C   0  0  0  0  0  0  0  0  0  0  0  0
   13.6282   -6.4431   15.0975 C   0  0  0  0  0  0  0  0  0  0  0  0
   12.6862   -7.3415   15.0204 N   0  0  0  0  0  0  0  0  0  0  0  0
   10.0563   -9.2579   15.8376 N   0  0  0  0  0  0  0  0  0  0  0  0
   10.8991   -8.4764   16.0168 C   0  0  0  0  0  0  0  0  0  0  0  0
   14.8698   -1.5953   11.4887 O   0  0  0  0  0  0  0  0  0  0  0  0
   13.9765   -1.1522   10.4695 C   0  0  0  0  0  0  0  0  0  0  0  0
   12.5498   -1.3548   10.9391 C   0  0  0  0  0  0  0  0  0  0  0  0
   11.7512   -1.5329    9.7816 F   0  0  0  0  0  0  0  0  0  0  0  0
   11.9349   -0.3104   11.8615 C   0  0  0  0  0  0  0  0  0  0  0  0
   11.4140   -1.3915   12.7368 N   0  0  0  0  0  0  0  0  0  0  0  0
   12.2072   -2.4059   11.9884 C   0  0  0  0  0  0  0  0  0  0  0  0
   11.7648   -1.3047   13.6858 H   0  0  0  0  0  0  0  0  0  0  0  0
   16.2587   -1.0857    9.2602 H   0  0  0  0  0  0  0  0  0  0  0  0
   20.4799   -2.8737    9.4852 H   0  0  0  0  0  0  0  0  0  0  0  0
   21.5348   -4.5308   11.0313 H   0  0  0  0  0  0  0  0  0  0  0  0
   20.1358   -5.6640   12.7233 H   0  0  0  0  0  0  0  0  0  0  0  0
   16.4189   -5.4109   13.9551 H   0  0  0  0  0  0  0  0  0  0  0  0
   11.7514   -7.1945   18.2520 H   0  0  0  0  0  0  0  0  0  0  0  0
   14.2077   -6.2669   14.2111 H   0  0  0  0  0  0  0  0  0  0  0  0
   14.1402   -1.7206    9.5615 H   0  0  0  0  0  0  0  0  0  0  0  0
   14.1330   -0.0916   10.2445 H   0  0  0  0  0  0  0  0  0  0  0  0
   11.1540    0.2864   11.4046 H   0  0  0  0  0  0  0  0  0  0  0  0
   12.6800    0.3607   12.2926 H   0  0  0  0  0  0  0  0  0  0  0  0
   11.6083   -3.2270   11.6076 H   0  0  0  0  0  0  0  0  0  0  0  0
   13.0706   -2.7897   12.5242 H   0  0  0  0  0  0  0  0  0  0  0  0
  1  2  1  0
  2 27  1  0
  2  3  2  0
  3  4  1  0
  3 35  1  0
  4  5  2  0
  5  6  1  0
  6  7  2  0
  6 36  1  0
  7  8  1  0
  7 37  1  0
  8  9  2  0
  8 38  1  0
  9 10  1  0
 10  1  2  0
 10  5  1  0
 11 12  1  0
 12 13  2  0
 12 39  1  0
 13  1  1  0
 13 14  1  0
 14 15  1  0
 14 16  1  0
 15 11  2  0
 17 11  1  0
 17 18  1  0
 19 20  2  0
 20 21  1  0
 20 40  1  0
 21 22  2  0
 22 17  1  0
 22 23  1  0
 23 24  2  0
 23 41  1  0
 24 19  1  0
 25 26  3  0
 26 19  1  0
 27 28  1  0
 28 29  1  0
 28 42  1  0
 28 43  1  0
 29 30  1  0
 29 31  1  0
 31 32  1  0
 31 44  1  0
 31 45  1  0
 32 33  1  0
 32 34  1  0
 33 29  1  0
 33 46  1  0
 33 47  1  0
M  END
>  <minimizedAffinity>  (9) 
-8.31980

>  <mol_id>  (9) 
124280

>  <source_index>  (9) 
8

>  <layer>  (9) 
L2

>  <uniprot>  (9) 
O14757

>  <paff>  (9) 
9.2218

>  <smiles>  (9) 
N#Cc1cnc(Nc2cc(-c3c(OCC4(F)CNC4)cnc4cccnc34)[nH]n2)cn1

>  <aimnet_interaction_kcal_mol>  (9) 
-63.722120485509969

$$$$
L2:O14757:126650
     RDKit          3D

 44 47  0  0  0  0  0  0  0  0999 V2000
   14.3969   -5.2771   13.3929 C   0  0  0  0  0  0  0  0  0  0  0  0
   15.4786   -6.0047   13.1197 N   0  0  0  0  0  0  0  0  0  0  0  0
   16.6540   -5.4310   13.0799 C   0  0  0  0  0  0  0  0  0  0  0  0
   16.8734   -4.0400   13.2799 C   0  0  0  0  0  0  0  0  0  0  0  0
   15.7285   -3.2878   13.5669 C   0  0  0  0  0  0  0  0  0  0  0  0
   14.4657   -3.8827   13.5795 C   0  0  0  0  0  0  0  0  0  0  0  0
   12.2213   -6.6746   13.5743 N   0  0  0  0  0  0  0  0  0  0  0  0
   13.1733   -6.0111   13.5199 C   0  0  0  0  0  0  0  0  0  0  0  0
   18.1547   -3.5440   13.2193 N   0  0  0  0  0  0  0  0  0  0  0  0
   19.1637   -3.7283   14.2535 H   0  0  0  0  0  0  0  0  0  0  0  0
   18.6888   -2.9938   12.1185 C   0  0  0  0  0  0  0  0  0  0  0  0
   19.9550   -3.4119   11.8106 N   0  0  0  0  0  0  0  0  0  0  0  0
   20.5414   -2.8958   10.7613 C   0  0  0  0  0  0  0  0  0  0  0  0
   19.9701   -1.8675   10.0165 C   0  0  0  0  0  0  0  0  0  0  0  0
   18.7092   -1.4429   10.4322 C   0  0  0  0  0  0  0  0  0  0  0  0
   18.0297   -2.0422   11.3941 N   0  0  0  0  0  0  0  0  0  0  0  0
   18.1703   -0.2084    9.7693 C   0  0  0  0  0  0  0  0  0  0  0  0
   18.6102   -0.0944    8.3188 C   0  0  0  0  0  0  0  0  0  0  0  0
   20.0859   -0.3433    8.0867 C   0  0  0  0  0  0  0  0  0  0  0  0
   20.7353    0.1463    7.1695 O   0  0  0  0  0  0  0  0  0  0  0  0
   20.6405   -1.2363    8.9499 N   0  0  0  0  0  0  0  0  0  0  0  0
   21.5988   -1.4837    8.7558 H   0  0  0  0  0  0  0  0  0  0  0  0
   13.3210   -3.1184   13.7927 N   0  0  0  0  0  0  0  0  0  0  0  0
   13.5254   -2.2130   14.1900 H   0  0  0  0  0  0  0  0  0  0  0  0
   12.2722   -3.0724   12.7686 C   0  0  2  0  0  0  0  0  0  0  0  0
   12.7268   -2.5163   11.4098 C   0  0  0  0  0  0  0  0  0  0  0  0
   12.2710   -1.0596   11.3523 C   0  0  0  0  0  0  0  0  0  0  0  0
   11.5999   -0.8188   12.6303 N   0  0  0  0  0  0  0  0  0  0  0  0
   11.1652   -2.1034   13.1705 C   0  0  0  0  0  0  0  0  0  0  0  0
   10.8445   -0.1529   12.5428 H   0  0  0  0  0  0  0  0  0  0  0  0
   17.4931   -6.0901   12.9110 H   0  0  0  0  0  0  0  0  0  0  0  0
   15.7825   -2.2263   13.7708 H   0  0  0  0  0  0  0  0  0  0  0  0
   21.5132   -3.3107   10.4951 H   0  0  0  0  0  0  0  0  0  0  0  0
   18.5316    0.6597   10.3201 H   0  0  0  0  0  0  0  0  0  0  0  0
   17.0885   -0.2162    9.8646 H   0  0  0  0  0  0  0  0  0  0  0  0
   18.3768    0.8737    7.8907 H   0  0  0  0  0  0  0  0  0  0  0  0
   18.0867   -0.8326    7.7096 H   0  0  0  0  0  0  0  0  0  0  0  0
   11.8795   -4.0798   12.6623 H   0  0  0  0  0  0  0  0  0  0  0  0
   12.2612   -3.0875   10.6097 H   0  0  0  0  0  0  0  0  0  0  0  0
   13.8000   -2.5999   11.2911 H   0  0  0  0  0  0  0  0  0  0  0  0
   11.6057   -0.9009   10.4989 H   0  0  0  0  0  0  0  0  0  0  0  0
   13.1070   -0.3671   11.2443 H   0  0  0  0  0  0  0  0  0  0  0  0
   10.2140   -2.4399   12.7455 H   0  0  0  0  0  0  0  0  0  0  0  0
   11.0535   -2.0606   14.2522 H   0  0  0  0  0  0  0  0  0  0  0  0
  1  2  2  0
  2  3  1  0
  3  4  2  0
  3 31  1  0
  4  9  1  0
  4  5  1  0
  5  6  2  0
  5 32  1  0
  6 23  1  0
  6  1  1  0
  7  8  3  0
  8  1  1  0
  9 11  1  0
  9 10  1  0
 11 12  2  0
 12 13  1  0
 13 14  2  0
 13 33  1  0
 14 15  1  0
 15 16  2  0
 15 17  1  0
 16 11  1  0
 17 18  1  0
 17 34  1  0
 17 35  1  0
 18 19  1  0
 18 36  1  0
 18 37  1  0
 19 20  2  0
 19 21  1  0
 21 14  1  0
 21 22  1  0
 23 25  1  0
 23 24  1  0
 25 26  1  0
 25 38  1  6
 26 27  1  0
 26 39  1  0
 26 40  1  0
 27 28  1  0
 27 41  1  0
 27 42  1  0
 28 29  1  0
 28 30  1  0
 29 25  1  0
 29 43  1  0
 29 44  1  0
M  END
>  <minimizedAffinity>  (10) 
-7.93164

>  <mol_id>  (10) 
126650

>  <source_index>  (10) 
9

>  <layer>  (10) 
L2

>  <uniprot>  (10) 
O14757

>  <paff>  (10) 
7.3768000000000002

>  <smiles>  (10) 
N#Cc1ncc(Nc2ncc3c(n2)CCC(=O)N3)cc1N[C@@H]1CCNC1

>  <aimnet_interaction_kcal_mol>  (10) 
-106.34754128255074

$$$$
