L2:O14757:4906
     RDKit          3D

 39 41  0  0  0  0  0  0  0  0999 V2000
   13.4909   -2.7024   12.1966 C   0  0  0  0  0  0  0  0  0  0  0  0
   14.7966   -2.8305   11.7929 C   0  0  0  0  0  0  0  0  0  0  0  0
   14.9757   -1.9103   10.7799 N   0  0  0  0  0  0  0  0  0  0  0  0
   13.7527   -1.2885   10.6394 C   0  0  0  0  0  0  0  0  0  0  0  0
   12.8498   -1.7464   11.4792 N   0  0  0  0  0  0  0  0  0  0  0  0
   16.1689   -1.6505   10.0439 C   0  0  0  0  0  0  0  0  0  0  0  0
   17.2730   -2.5069   10.1464 C   0  0  0  0  0  0  0  0  0  0  0  0
   18.4355   -2.2488    9.4106 C   0  0  0  0  0  0  0  0  0  0  0  0
   18.5208   -1.1414    8.5665 C   0  0  0  0  0  0  0  0  0  0  0  0
   17.4291   -0.2827    8.4672 C   0  0  0  0  0  0  0  0  0  0  0  0
   16.2590   -0.5343    9.1997 C   0  0  0  0  0  0  0  0  0  0  0  0
   19.7108   -1.0158    7.9071 O   0  0  0  0  0  0  0  0  0  0  0  0
   20.9057   -1.1326    8.6895 C   0  0  0  0  0  0  0  0  0  0  0  0
   22.1005   -0.7359    7.8113 C   0  0  0  0  0  0  0  0  0  0  0  0
   21.7904    0.4150    6.9580 N   0  0  0  0  0  0  0  0  0  0  0  0
   21.4187    1.1613    7.5492 H   0  0  0  0  0  0  0  0  0  0  0  0
   22.6521    0.7751    6.5503 H   0  0  0  0  0  0  0  0  0  0  0  0
   12.9210   -3.4240   13.1718 N   0  0  0  0  0  0  0  0  0  0  0  0
   11.9387   -3.3022   13.3886 H   0  0  0  0  0  0  0  0  0  0  0  0
   14.3706   -6.4101   15.5964 C   0  0  0  0  0  0  0  0  0  0  0  0
   13.5187   -6.6583   14.5347 C   0  0  0  0  0  0  0  0  0  0  0  0
   13.0341   -5.6735   13.7341 N   0  0  0  0  0  0  0  0  0  0  0  0
   13.4283   -4.4063   14.0189 C   0  0  0  0  0  0  0  0  0  0  0  0
   14.2877   -4.1744   15.0953 C   0  0  0  0  0  0  0  0  0  0  0  0
   14.7773   -5.1577   15.9036 N   0  0  0  0  0  0  0  0  0  0  0  0
   15.3118   -8.3424   17.0474 N   0  0  0  0  0  0  0  0  0  0  0  0
   14.8655   -7.4789   16.4102 C   0  0  0  0  0  0  0  0  0  0  0  0
   15.5016   -3.4828   12.1704 H   0  0  0  0  0  0  0  0  0  0  0  0
   13.5660   -0.5440    9.9495 H   0  0  0  0  0  0  0  0  0  0  0  0
   17.2291   -3.3307   10.7664 H   0  0  0  0  0  0  0  0  0  0  0  0
   19.2418   -2.8875    9.4938 H   0  0  0  0  0  0  0  0  0  0  0  0
   17.4809    0.5437    7.8512 H   0  0  0  0  0  0  0  0  0  0  0  0
   15.4562    0.1089    9.1163 H   0  0  0  0  0  0  0  0  0  0  0  0
   21.0220   -2.1426    9.0231 H   0  0  0  0  0  0  0  0  0  0  0  0
   20.8493   -0.4920    9.5447 H   0  0  0  0  0  0  0  0  0  0  0  0
   22.3648   -1.5662    7.1903 H   0  0  0  0  0  0  0  0  0  0  0  0
   22.9107   -0.4640    8.4551 H   0  0  0  0  0  0  0  0  0  0  0  0
   13.2395   -7.6331   14.3428 H   0  0  0  0  0  0  0  0  0  0  0  0
   14.5690   -3.2009   15.2906 H   0  0  0  0  0  0  0  0  0  0  0  0
  1  2  2  0
  2  3  1  0
  2 28  1  0
  3  6  1  0
  3  4  1  0
  4  5  2  0
  4 29  1  0
  5  1  1  0
  6  7  2  0
  7  8  1  0
  7 30  1  0
  8  9  2  0
  8 31  1  0
  9 12  1  0
  9 10  1  0
 10 11  2  0
 10 32  1  0
 11  6  1  0
 11 33  1  0
 12 13  1  0
 13 14  1  0
 13 34  1  0
 13 35  1  0
 14 15  1  0
 14 36  1  0
 14 37  1  0
 15 16  1  0
 15 17  1  0
 18  1  1  0
 18 19  1  0
 20 21  2  0
 21 22  1  0
 21 38  1  0
 22 23  2  0
 23 18  1  0
 23 24  1  0
 24 25  2  0
 24 39  1  0
 25 20  1  0
 26 27  3  0
 27 20  1  0
M  END
>  <minimizedAffinity>  (1) 
-6.31363

>  <mol_id>  (1) 
4906

>  <source_index>  (1) 
0

>  <layer>  (1) 
L2

>  <uniprot>  (1) 
O14757

>  <paff>  (1) 
7.5528000000000004

>  <smiles>  (1) 
N#Cc1cnc(Nc2cn(-c3ccc(OCCN)cc3)cn2)cn1

$$$$
L2:O14757:10681
     RDKit          3D

 55 59  0  0  0  0  0  0  0  0999 V2000
   15.5981   -1.4425   10.5314 C   0  0  0  0  0  0  0  0  0  0  0  0
   14.6579   -0.5699    9.9883 C   0  0  0  0  0  0  0  0  0  0  0  0
   13.3804   -0.4659   10.4360 N   0  0  0  0  0  0  0  0  0  0  0  0
   13.0293   -1.2598   11.4697 C   0  0  0  0  0  0  0  0  0  0  0  0
   11.7117   -1.1238   11.9316 N   0  0  0  0  0  0  0  0  0  0  0  0
   13.9782   -2.1332   12.0261 C   0  0  0  0  0  0  0  0  0  0  0  0
   15.2658   -2.2442   11.5699 N   0  0  0  0  0  0  0  0  0  0  0  0
   11.7364   -0.8443   12.9125 H   0  0  0  0  0  0  0  0  0  0  0  0
   11.2761   -2.0472   11.9583 H   0  0  0  0  0  0  0  0  0  0  0  0
   19.2618   -2.4455   10.2374 C   0  0  0  0  0  0  0  0  0  0  0  0
   19.5986   -1.8172    9.0314 C   0  0  0  0  0  0  0  0  0  0  0  0
   18.6469   -1.0831    8.3228 C   0  0  0  0  0  0  0  0  0  0  0  0
   17.3499   -0.9680    8.8137 C   0  0  0  0  0  0  0  0  0  0  0  0
   16.4637   -0.2700    8.0870 F   0  0  0  0  0  0  0  0  0  0  0  0
   16.9639   -1.5770   10.0134 C   0  0  0  0  0  0  0  0  0  0  0  0
   17.9432   -2.3139   10.7129 C   0  0  0  0  0  0  0  0  0  0  0  0
   21.5526   -6.0644   12.7824 C   0  0  0  0  0  0  0  0  0  0  0  0
   21.2561   -4.8294   12.0957 N   0  0  0  0  0  0  0  0  0  0  0  0
   20.0695   -4.4710   11.5199 C   0  0  0  0  0  0  0  0  0  0  0  0
   20.2615   -3.2199   10.9640 C   0  0  0  0  0  0  0  0  0  0  0  0
   21.6123   -2.9248   11.2768 C   0  0  0  0  0  0  0  0  0  0  0  0
   22.2158   -3.9012   11.9598 N   0  0  0  0  0  0  0  0  0  0  0  0
   13.6470   -3.0255   13.1837 C   0  0  0  0  0  0  0  0  0  0  0  0
   12.7237   -2.7824   13.9523 O   0  0  0  0  0  0  0  0  0  0  0  0
   14.4797   -4.1226   13.3082 N   0  0  0  0  0  0  0  0  0  0  0  0
   15.2832   -4.1322   12.6816 H   0  0  0  0  0  0  0  0  0  0  0  0
   14.4504   -5.0169   14.4566 C   0  0  2  0  0  0  0  0  0  0  0  0
   15.2689   -4.4388   15.6279 C   0  0  0  0  0  0  0  0  0  0  0  0
   16.6680   -5.0460   15.7020 C   0  0  0  0  0  0  0  0  0  0  0  0
   16.5934   -6.5632   15.8090 C   0  0  0  0  0  0  0  0  0  0  0  0
   17.8992   -7.3190   15.7451 C   0  0  0  0  0  0  0  0  0  0  0  0
   17.1618   -7.2222   17.0457 C   0  0  0  0  0  0  0  0  0  0  0  0
   15.4114   -7.2109   15.1899 N   0  0  0  0  0  0  0  0  0  0  0  0
   14.9287   -6.4300   14.0480 C   0  0  0  0  0  0  0  0  0  0  0  0
   14.6616   -7.2884   15.8787 H   0  0  0  0  0  0  0  0  0  0  0  0
   14.9487    0.0312    9.2015 H   0  0  0  0  0  0  0  0  0  0  0  0
   20.5595   -1.8981    8.6637 H   0  0  0  0  0  0  0  0  0  0  0  0
   18.9049   -0.6254    7.4345 H   0  0  0  0  0  0  0  0  0  0  0  0
   17.6846   -2.7709   11.6013 H   0  0  0  0  0  0  0  0  0  0  0  0
   20.6794   -6.6826   12.7976 H   0  0  0  0  0  0  0  0  0  0  0  0
   21.8558   -5.8506   13.7860 H   0  0  0  0  0  0  0  0  0  0  0  0
   22.3424   -6.5753   12.2724 H   0  0  0  0  0  0  0  0  0  0  0  0
   19.1997   -5.0262   11.5033 H   0  0  0  0  0  0  0  0  0  0  0  0
   22.0809   -2.0464   11.0049 H   0  0  0  0  0  0  0  0  0  0  0  0
   13.4411   -5.1058   14.8005 H   0  0  0  0  0  0  0  0  0  0  0  0
   14.7543   -4.6438   16.5434 H   0  0  0  0  0  0  0  0  0  0  0  0
   15.3734   -3.3856   15.4703 H   0  0  0  0  0  0  0  0  0  0  0  0
   17.1738   -4.6581   16.5614 H   0  0  0  0  0  0  0  0  0  0  0  0
   17.2007   -4.7906   14.8098 H   0  0  0  0  0  0  0  0  0  0  0  0
   18.8180   -6.7873   15.6113 H   0  0  0  0  0  0  0  0  0  0  0  0
   18.2768   -8.1240   15.1499 H   0  0  0  0  0  0  0  0  0  0  0  0
   17.5543   -6.6211   17.8391 H   0  0  0  0  0  0  0  0  0  0  0  0
   16.7959   -7.9289   17.7610 H   0  0  0  0  0  0  0  0  0  0  0  0
   14.1109   -6.9519   13.5965 H   0  0  0  0  0  0  0  0  0  0  0  0
   15.7449   -6.3125   13.3662 H   0  0  0  0  0  0  0  0  0  0  0  0
  1  2  2  0
  2  3  1  0
  2 36  1  0
  3  4  2  0
  4  5  1  0
  4  6  1  0
  5  8  1  0
  5  9  1  0
  6 23  1  0
  6  7  2  0
  7  1  1  0
 10 11  2  0
 11 12  1  0
 11 37  1  0
 12 13  2  0
 12 38  1  0
 13 14  1  0
 13 15  1  0
 15  1  1  0
 15 16  2  0
 16 10  1  0
 16 39  1  0
 17 18  1  0
 17 40  1  0
 17 41  1  0
 17 42  1  0
 18 19  1  0
 19 20  2  0
 19 43  1  0
 20 10  1  0
 20 21  1  0
 21 22  2  0
 21 44  1  0
 22 18  1  0
 23 24  2  0
 23 25  1  0
 25 27  1  0
 25 26  1  0
 27 28  1  0
 27 45  1  1
 28 29  1  0
 28 46  1  0
 28 47  1  0
 29 30  1  0
 29 48  1  0
 29 49  1  0
 30 31  1  0
 30 33  1  0
 31 32  1  0
 31 50  1  0
 31 51  1  0
 32 30  1  0
 32 52  1  0
 32 53  1  0
 33 34  1  0
 33 35  1  0
 34 27  1  0
 34 54  1  0
 34 55  1  0
M  END
>  <minimizedAffinity>  (2) 
-8.37262

>  <mol_id>  (2) 
10681

>  <source_index>  (2) 
1

>  <layer>  (2) 
L2

>  <uniprot>  (2) 
O14757

>  <paff>  (2) 
7.2595999999999998

>  <smiles>  (2) 
Cn1cc(-c2ccc(F)c(-c3cnc(N)c(C(=O)NC4CCC5(CC5)NC4)n3)c2)cn1

$$$$
L2:O14757:55958
     RDKit          3D

 45 47  0  0  0  0  0  0  0  0999 V2000
   18.2393   -1.1061    9.7701 C   0  0  0  0  0  0  0  0  0  0  0  0
   18.1587    0.0415    8.9845 C   0  0  0  0  0  0  0  0  0  0  0  0
   17.0056    0.6184    8.5824 N   0  0  0  0  0  0  0  0  0  0  0  0
   15.8634    0.0235    8.9860 C   0  0  0  0  0  0  0  0  0  0  0  0
   15.8075   -1.1195    9.7801 C   0  0  0  0  0  0  0  0  0  0  0  0
   17.0297   -1.7068   10.1917 C   0  0  0  0  0  0  0  0  0  0  0  0
   17.0386   -2.9207   11.0392 C   0  0  0  0  0  0  0  0  0  0  0  0
   17.2880   -3.1293   12.3842 C   0  0  0  0  0  0  0  0  0  0  0  0
   17.1749   -4.5242   12.6061 C   0  0  0  0  0  0  0  0  0  0  0  0
   16.8276   -5.1515   11.4832 N   0  0  0  0  0  0  0  0  0  0  0  0
   16.7590   -4.1776   10.5679 N   0  0  0  0  0  0  0  0  0  0  0  0
   16.4889   -4.4224    9.6223 H   0  0  0  0  0  0  0  0  0  0  0  0
   17.3473   -5.0658   13.8337 N   0  0  0  0  0  0  0  0  0  0  0  0
   18.1441   -5.6752   13.9622 H   0  0  0  0  0  0  0  0  0  0  0  0
   16.3550   -5.3312   14.7994 C   0  0  0  0  0  0  0  0  0  0  0  0
   16.7462   -5.6050   16.1163 C   0  0  0  0  0  0  0  0  0  0  0  0
   15.8850   -5.8733   17.1340 N   0  0  0  0  0  0  0  0  0  0  0  0
   14.5744   -5.8382   16.7929 C   0  0  0  0  0  0  0  0  0  0  0  0
   14.1637   -5.5650   15.5003 C   0  0  0  0  0  0  0  0  0  0  0  0
   15.0377   -5.3183   14.4928 N   0  0  0  0  0  0  0  0  0  0  0  0
   13.6209   -6.1016   17.8276 C   0  0  0  0  0  0  0  0  0  0  0  0
   12.8631   -6.3527   18.6724 N   0  0  0  0  0  0  0  0  0  0  0  0
   20.1013   -2.4910    9.1865 C   0  0  0  0  0  0  0  0  0  0  0  0
   19.4185   -1.6958   10.1477 O   0  0  0  0  0  0  0  0  0  0  0  0
   14.6390   -1.7248   10.1756 O   0  0  0  0  0  0  0  0  0  0  0  0
   13.5523   -0.8718   10.5700 C   0  0  0  0  0  0  0  0  0  0  0  0
   12.5977   -1.6800   11.4491 C   0  0  1  0  0  0  0  0  0  0  0  0
   11.6192   -2.2117   10.6535 F   0  0  0  0  0  0  0  0  0  0  0  0
   13.2914   -2.8369   12.1793 C   0  0  0  0  0  0  0  0  0  0  0  0
   14.0997   -2.3986   13.3219 N   0  0  0  0  0  0  0  0  0  0  0  0
   14.6485   -3.1867   13.6675 H   0  0  0  0  0  0  0  0  0  0  0  0
   14.7836   -1.7134   12.9885 H   0  0  0  0  0  0  0  0  0  0  0  0
   19.0436    0.4825    8.6885 H   0  0  0  0  0  0  0  0  0  0  0  0
   14.9702    0.4443    8.6857 H   0  0  0  0  0  0  0  0  0  0  0  0
   17.5126   -2.4092   13.0885 H   0  0  0  0  0  0  0  0  0  0  0  0
   17.7561   -5.6030   16.3285 H   0  0  0  0  0  0  0  0  0  0  0  0
   13.1526   -5.5483   15.2946 H   0  0  0  0  0  0  0  0  0  0  0  0
   20.9977   -2.8830    9.6198 H   0  0  0  0  0  0  0  0  0  0  0  0
   20.3493   -1.8893    8.3372 H   0  0  0  0  0  0  0  0  0  0  0  0
   19.4707   -3.2990    8.8793 H   0  0  0  0  0  0  0  0  0  0  0  0
   13.0345   -0.5216    9.7016 H   0  0  0  0  0  0  0  0  0  0  0  0
   13.9257   -0.0283   11.1122 H   0  0  0  0  0  0  0  0  0  0  0  0
   12.2049   -1.0131   12.1879 H   0  0  0  0  0  0  0  0  0  0  0  0
   13.9299   -3.3426   11.4854 H   0  0  0  0  0  0  0  0  0  0  0  0
   12.5238   -3.4774   12.5606 H   0  0  0  0  0  0  0  0  0  0  0  0
  1  2  2  0
  2  3  1  0
  2 33  1  0
  3  4  2  0
  4  5  1  0
  4 34  1  0
  5 25  1  0
  5  6  2  0
  6  7  1  0
  6  1  1  0
  7  8  2  0
  8  9  1  0
  8 35  1  0
  9 13  1  0
  9 10  2  0
 10 11  1  0
 11  7  1  0
 11 12  1  0
 13 15  1  0
 13 14  1  0
 15 16  2  0
 16 17  1  0
 16 36  1  0
 17 18  2  0
 18 21  1  0
 18 19  1  0
 19 20  2  0
 19 37  1  0
 20 15  1  0
 21 22  3  0
 23 24  1  0
 23 38  1  0
 23 39  1  0
 23 40  1  0
 24  1  1  0
 25 26  1  0
 26 27  1  0
 26 41  1  0
 26 42  1  0
 27 28  1  0
 27 29  1  0
 27 43  1  1
 29 30  1  0
 29 44  1  0
 29 45  1  0
 30 31  1  0
 30 32  1  0
M  END
>  <minimizedAffinity>  (3) 
-6.30462

>  <mol_id>  (3) 
55958

>  <source_index>  (3) 
2

>  <layer>  (3) 
L2

>  <uniprot>  (3) 
O14757

>  <paff>  (3) 
9.2218

>  <smiles>  (3) 
COc1cncc(OC[C@@H](F)CN)c1-c1cc(Nc2cnc(C#N)cn2)n[nH]1

$$$$
L2:O14757:60774
     RDKit          3D

 49 52  0  0  0  0  0  0  0  0999 V2000
   13.1569   -2.1130   11.5759 C   0  0  0  0  0  0  0  0  0  0  0  0
   11.7818   -2.0925   11.8220 C   0  0  0  0  0  0  0  0  0  0  0  0
   11.2635   -2.9546   12.7696 C   0  0  0  0  0  0  0  0  0  0  0  0
   12.0072   -3.8231   13.4752 N   0  0  0  0  0  0  0  0  0  0  0  0
   13.3346   -3.8452   13.2211 C   0  0  0  0  0  0  0  0  0  0  0  0
   13.9803   -3.0176   12.2822 C   0  0  0  0  0  0  0  0  0  0  0  0
   15.4407   -3.0851   12.0655 C   0  0  0  0  0  0  0  0  0  0  0  0
   16.2193   -3.5572   11.0238 C   0  0  0  0  0  0  0  0  0  0  0  0
   17.5693   -3.3512   11.4012 C   0  0  0  0  0  0  0  0  0  0  0  0
   17.6383   -2.7568   12.5915 N   0  0  0  0  0  0  0  0  0  0  0  0
   16.3629   -2.6411   12.9801 N   0  0  0  0  0  0  0  0  0  0  0  0
   16.1712   -2.2519   13.8976 H   0  0  0  0  0  0  0  0  0  0  0  0
   18.5955   -3.6823   10.5845 N   0  0  0  0  0  0  0  0  0  0  0  0
   19.1607   -4.4776   10.8503 H   0  0  0  0  0  0  0  0  0  0  0  0
   19.3111   -2.8278    9.7209 C   0  0  0  0  0  0  0  0  0  0  0  0
   20.6920   -3.0121    9.5748 C   0  0  0  0  0  0  0  0  0  0  0  0
   21.4877   -2.2557    8.7723 N   0  0  0  0  0  0  0  0  0  0  0  0
   20.8397   -1.2893    8.0784 C   0  0  0  0  0  0  0  0  0  0  0  0
   19.4760   -1.0915    8.2023 C   0  0  0  0  0  0  0  0  0  0  0  0
   18.7004   -1.8435    9.0227 N   0  0  0  0  0  0  0  0  0  0  0  0
   21.6262   -0.4688    7.2081 C   0  0  0  0  0  0  0  0  0  0  0  0
   22.2310    0.2079    6.4819 N   0  0  0  0  0  0  0  0  0  0  0  0
   13.1526   -0.0260   10.3941 C   0  0  0  0  0  0  0  0  0  0  0  0
   13.7672   -1.2778   10.6715 O   0  0  0  0  0  0  0  0  0  0  0  0
   14.1189   -4.7234   13.9456 O   0  0  0  0  0  0  0  0  0  0  0  0
   14.2392   -4.4761   15.3485 C   0  0  0  0  0  0  0  0  0  0  0  0
   14.9407   -5.6538   16.0151 C   0  0  0  0  0  0  0  0  0  0  0  0
   14.3102   -7.0253   15.8181 C   0  0  0  0  0  0  0  0  0  0  0  0
   14.2083   -6.3511   17.1559 C   0  0  0  0  0  0  0  0  0  0  0  0
   16.4536   -5.5229   16.0047 C   0  0  0  0  0  0  0  0  0  0  0  0
   16.9670   -4.3667   15.2813 N   0  0  0  0  0  0  0  0  0  0  0  0
   16.5420   -3.5185   15.6464 H   0  0  0  0  0  0  0  0  0  0  0  0
   16.6988   -4.4355   14.3028 H   0  0  0  0  0  0  0  0  0  0  0  0
   11.1648   -1.4459   11.3060 H   0  0  0  0  0  0  0  0  0  0  0  0
   10.2469   -2.9299   12.9454 H   0  0  0  0  0  0  0  0  0  0  0  0
   15.8824   -3.9775   10.1435 H   0  0  0  0  0  0  0  0  0  0  0  0
   21.1354   -3.7732   10.1124 H   0  0  0  0  0  0  0  0  0  0  0  0
   19.0314   -0.3425    7.6489 H   0  0  0  0  0  0  0  0  0  0  0  0
   13.7397    0.5084    9.6768 H   0  0  0  0  0  0  0  0  0  0  0  0
   13.0844    0.5455   11.2961 H   0  0  0  0  0  0  0  0  0  0  0  0
   12.1712   -0.1899   10.0007 H   0  0  0  0  0  0  0  0  0  0  0  0
   13.2649   -4.3544   15.7738 H   0  0  0  0  0  0  0  0  0  0  0  0
   14.8113   -3.5856   15.5054 H   0  0  0  0  0  0  0  0  0  0  0  0
   14.9334   -7.8872   15.7011 H   0  0  0  0  0  0  0  0  0  0  0  0
   13.6056   -7.4384   15.1269 H   0  0  0  0  0  0  0  0  0  0  0  0
   14.7594   -6.7332   17.9897 H   0  0  0  0  0  0  0  0  0  0  0  0
   13.4021   -6.0868   17.8079 H   0  0  0  0  0  0  0  0  0  0  0  0
   16.8599   -6.4039   15.5534 H   0  0  0  0  0  0  0  0  0  0  0  0
   16.7494   -5.3928   17.0247 H   0  0  0  0  0  0  0  0  0  0  0  0
  1  2  2  0
  2  3  1  0
  2 34  1  0
  3  4  2  0
  3 35  1  0
  4  5  1  0
  5 25  1  0
  5  6  2  0
  6  7  1  0
  6  1  1  0
  7  8  2  0
  8  9  1  0
  8 36  1  0
  9 13  1  0
  9 10  2  0
 10 11  1  0
 11  7  1  0
 11 12  1  0
 13 15  1  0
 13 14  1  0
 15 16  2  0
 16 17  1  0
 16 37  1  0
 17 18  2  0
 18 21  1  0
 18 19  1  0
 19 20  2  0
 19 38  1  0
 20 15  1  0
 21 22  3  0
 23 24  1  0
 23 39  1  0
 23 40  1  0
 23 41  1  0
 24  1  1  0
 25 26  1  0
 26 27  1  0
 26 42  1  0
 26 43  1  0
 27 30  1  0
 27 28  1  0
 28 29  1  0
 28 44  1  0
 28 45  1  0
 29 27  1  0
 29 46  1  0
 29 47  1  0
 30 31  1  0
 30 48  1  0
 30 49  1  0
 31 32  1  0
 31 33  1  0
M  END
>  <minimizedAffinity>  (4) 
-6.61757

>  <mol_id>  (4) 
60774

>  <source_index>  (4) 
3

>  <layer>  (4) 
L2

>  <uniprot>  (4) 
O14757

>  <paff>  (4) 
9.4948999999999995

>  <smiles>  (4) 
COc1ccnc(OCC2(CN)CC2)c1-c1cc(Nc2cnc(C#N)cn2)n[nH]1

$$$$
L2:O14757:60923
     RDKit          3D

 44 47  0  0  0  0  0  0  0  0999 V2000
   15.9693   -4.8014   13.5956 C   0  0  0  0  0  0  0  0  0  0  0  0
   14.7268   -4.2994   13.3461 N   0  0  0  0  0  0  0  0  0  0  0  0
   13.6538   -4.8110   14.0005 C   0  0  0  0  0  0  0  0  0  0  0  0
   13.8292   -5.8452   14.9100 C   0  0  0  0  0  0  0  0  0  0  0  0
   15.0353   -6.3984   15.1841 N   0  0  0  0  0  0  0  0  0  0  0  0
   16.0901   -5.8679   14.5050 C   0  0  0  0  0  0  0  0  0  0  0  0
   17.5280    0.0841    9.3467 C   0  0  0  0  0  0  0  0  0  0  0  0
   17.9480   -1.2675    9.7002 N   0  0  0  0  0  0  0  0  0  0  0  0
   16.8002   -2.0618   10.2018 C   0  0  0  0  0  0  0  0  0  0  0  0
   17.7420   -2.5974   11.3196 C   0  0  0  0  0  0  0  0  0  0  0  0
   18.4276   -3.9293   11.0236 C   0  0  0  0  0  0  0  0  0  0  0  0
   17.4666   -4.9236   11.6697 C   0  0  0  0  0  0  0  0  0  0  0  0
   17.0270   -4.2360   12.8904 N   0  0  0  0  0  0  0  0  0  0  0  0
   17.0999   -2.7776   12.6950 C   0  0  0  0  0  0  0  0  0  0  0  0
   18.5398   -1.2942   11.0599 C   0  0  0  0  0  0  0  0  0  0  0  0
   12.4321   -4.2199   13.6828 N   0  0  0  0  0  0  0  0  0  0  0  0
   11.6957   -4.8221   14.0314 H   0  0  0  0  0  0  0  0  0  0  0  0
   12.1299   -3.0820   13.0441 C   0  0  0  0  0  0  0  0  0  0  0  0
   12.7265   -2.6551   11.8816 C   0  0  0  0  0  0  0  0  0  0  0  0
   12.1150   -1.4643   11.5950 N   0  0  0  0  0  0  0  0  0  0  0  0
   11.1993   -1.2217   12.5766 C   0  0  0  0  0  0  0  0  0  0  0  0
   11.1879   -2.1903   13.4654 N   0  0  0  0  0  0  0  0  0  0  0  0
   12.3740   -0.5946   10.4700 C   0  0  0  0  0  0  0  0  0  0  0  0
   12.2068    0.7090   10.8124 F   0  0  0  0  0  0  0  0  0  0  0  0
   13.6559   -0.7284   10.0437 F   0  0  0  0  0  0  0  0  0  0  0  0
   17.3369   -6.5244   14.7740 C   0  0  0  0  0  0  0  0  0  0  0  0
   18.3476   -7.0688   14.9642 N   0  0  0  0  0  0  0  0  0  0  0  0
   12.9991   -6.2110   15.4021 H   0  0  0  0  0  0  0  0  0  0  0  0
   17.1048    0.0805    8.3640 H   0  0  0  0  0  0  0  0  0  0  0  0
   18.3748    0.7378    9.3680 H   0  0  0  0  0  0  0  0  0  0  0  0
   16.7963    0.4253   10.0489 H   0  0  0  0  0  0  0  0  0  0  0  0
   16.4444   -2.8085    9.5231 H   0  0  0  0  0  0  0  0  0  0  0  0
   15.8594   -1.6064   10.4306 H   0  0  0  0  0  0  0  0  0  0  0  0
   19.3977   -3.9767   11.4726 H   0  0  0  0  0  0  0  0  0  0  0  0
   18.6003   -4.1065    9.9826 H   0  0  0  0  0  0  0  0  0  0  0  0
   17.9666   -5.8395   11.9062 H   0  0  0  0  0  0  0  0  0  0  0  0
   16.6534   -5.1925   11.0283 H   0  0  0  0  0  0  0  0  0  0  0  0
   17.7032   -2.3256   13.4544 H   0  0  0  0  0  0  0  0  0  0  0  0
   16.1372   -2.3144   12.7542 H   0  0  0  0  0  0  0  0  0  0  0  0
   19.6031   -1.4122   11.0799 H   0  0  0  0  0  0  0  0  0  0  0  0
   18.4678   -0.4536   11.7180 H   0  0  0  0  0  0  0  0  0  0  0  0
   13.4702   -3.1274   11.3442 H   0  0  0  0  0  0  0  0  0  0  0  0
   10.5943   -0.3866   12.6163 H   0  0  0  0  0  0  0  0  0  0  0  0
   11.6846   -0.8733    9.7006 H   0  0  0  0  0  0  0  0  0  0  0  0
  1  2  2  0
  2  3  1  0
  3 16  1  0
  3  4  2  0
  4  5  1  0
  4 28  1  0
  5  6  2  0
  6 26  1  0
  6  1  1  0
  7  8  1  0
  7 29  1  0
  7 30  1  0
  7 31  1  0
  8  9  1  0
  9 10  1  0
  9 32  1  0
  9 33  1  0
 10 11  1  0
 10 15  1  0
 11 12  1  0
 11 34  1  0
 11 35  1  0
 12 13  1  0
 12 36  1  0
 12 37  1  0
 13  1  1  0
 13 14  1  0
 14 10  1  0
 14 38  1  0
 14 39  1  0
 15  8  1  0
 15 40  1  0
 15 41  1  0
 16 18  1  0
 16 17  1  0
 18 19  2  0
 19 20  1  0
 19 42  1  0
 20 23  1  0
 20 21  1  0
 21 22  2  0
 21 43  1  0
 22 18  1  0
 23 24  1  0
 23 25  1  0
 23 44  1  0
 26 27  3  0
M  END
>  <minimizedAffinity>  (5) 
-6.89433

>  <mol_id>  (5) 
60923

>  <source_index>  (5) 
4

>  <layer>  (5) 
L2

>  <uniprot>  (5) 
O14757

>  <paff>  (5) 
7.8539000000000003

>  <smiles>  (5) 
CN1CC2(CCN(c3nc(Nc4cn(C(F)F)cn4)cnc3C#N)C2)C1

$$$$
L2:O14757:64281
     RDKit          3D

 50 53  0  0  0  0  0  0  0  0999 V2000
   14.0370   -2.5756   12.1124 C   0  0  0  0  0  0  0  0  0  0  0  0
   15.3716   -2.7624   11.8618 C   0  0  0  0  0  0  0  0  0  0  0  0
   15.6560   -2.0218   10.7353 N   0  0  0  0  0  0  0  0  0  0  0  0
   14.4564   -1.4423   10.3735 C   0  0  0  0  0  0  0  0  0  0  0  0
   13.4685   -1.7643   11.1821 N   0  0  0  0  0  0  0  0  0  0  0  0
   16.9146   -1.8903   10.0809 C   0  0  0  0  0  0  0  0  0  0  0  0
   17.1607   -0.8208    9.2165 C   0  0  0  0  0  0  0  0  0  0  0  0
   18.4054   -0.6922    8.5784 C   0  0  0  0  0  0  0  0  0  0  0  0
   19.4484   -1.6085    8.7742 C   0  0  0  0  0  0  0  0  0  0  0  0
   19.1728   -2.6765    9.6415 C   0  0  0  0  0  0  0  0  0  0  0  0
   17.9337   -2.8228   10.2877 C   0  0  0  0  0  0  0  0  0  0  0  0
   20.6736   -1.4742    8.1446 N   0  0  0  0  0  0  0  0  0  0  0  0
   21.5741   -2.6262    7.9520 C   0  0  0  0  0  0  0  0  0  0  0  0
   23.0595   -2.1910    7.9917 C   0  0  0  0  0  0  0  0  0  0  0  0
   23.4524   -1.1225    7.0410 N   0  0  0  0  0  0  0  0  0  0  0  0
   22.2772   -0.3074    6.6562 C   0  0  0  0  0  0  0  0  0  0  0  0
   21.2152   -0.1591    7.7693 C   0  0  0  0  0  0  0  0  0  0  0  0
   24.1353   -1.6364    5.8395 C   0  0  0  0  0  0  0  0  0  0  0  0
   23.2235   -1.8205    4.6216 C   0  0  0  0  0  0  0  0  0  0  0  0
   22.5655   -3.0086    4.7001 F   0  0  0  0  0  0  0  0  0  0  0  0
   13.2677   -3.0918   13.0832 N   0  0  0  0  0  0  0  0  0  0  0  0
   12.5871   -2.4389   13.4545 H   0  0  0  0  0  0  0  0  0  0  0  0
   14.0092   -6.3715   15.4761 C   0  0  0  0  0  0  0  0  0  0  0  0
   14.4904   -5.1213   15.8256 C   0  0  0  0  0  0  0  0  0  0  0  0
   14.2635   -4.0111   15.0768 N   0  0  0  0  0  0  0  0  0  0  0  0
   13.5219   -4.1672   13.9531 C   0  0  0  0  0  0  0  0  0  0  0  0
   13.0539   -5.4450   13.6157 C   0  0  0  0  0  0  0  0  0  0  0  0
   13.2715   -6.5641   14.3575 N   0  0  0  0  0  0  0  0  0  0  0  0
   14.5400   -8.4351   16.9541 N   0  0  0  0  0  0  0  0  0  0  0  0
   14.2784   -7.5184   16.2890 C   0  0  0  0  0  0  0  0  0  0  0  0
   16.0301   -3.3407   12.4066 H   0  0  0  0  0  0  0  0  0  0  0  0
   14.3457   -0.8224    9.5559 H   0  0  0  0  0  0  0  0  0  0  0  0
   16.4226   -0.1201    9.0455 H   0  0  0  0  0  0  0  0  0  0  0  0
   18.5578    0.1059    7.9422 H   0  0  0  0  0  0  0  0  0  0  0  0
   19.9077   -3.3809    9.8111 H   0  0  0  0  0  0  0  0  0  0  0  0
   17.7757   -3.6239   10.9188 H   0  0  0  0  0  0  0  0  0  0  0  0
   21.3676   -3.0754    7.0030 H   0  0  0  0  0  0  0  0  0  0  0  0
   21.4049   -3.3238    8.7455 H   0  0  0  0  0  0  0  0  0  0  0  0
   23.6582   -3.0524    7.7809 H   0  0  0  0  0  0  0  0  0  0  0  0
   23.2118   -1.7780    8.9670 H   0  0  0  0  0  0  0  0  0  0  0  0
   21.8130   -0.7675    5.8090 H   0  0  0  0  0  0  0  0  0  0  0  0
   22.6416    0.6766    6.4468 H   0  0  0  0  0  0  0  0  0  0  0  0
   20.4187    0.4615    7.4153 H   0  0  0  0  0  0  0  0  0  0  0  0
   21.6745    0.2835    8.6284 H   0  0  0  0  0  0  0  0  0  0  0  0
   24.5672   -2.5853    6.0804 H   0  0  0  0  0  0  0  0  0  0  0  0
   24.8646   -0.9027    5.5661 H   0  0  0  0  0  0  0  0  0  0  0  0
   23.8163   -1.8034    3.7310 H   0  0  0  0  0  0  0  0  0  0  0  0
   22.5068   -1.0263    4.6000 H   0  0  0  0  0  0  0  0  0  0  0  0
   15.0447   -5.0291   16.6912 H   0  0  0  0  0  0  0  0  0  0  0  0
   12.5074   -5.5431   12.7458 H   0  0  0  0  0  0  0  0  0  0  0  0
  1  2  2  0
  2  3  1  0
  2 31  1  0
  3  6  1  0
  3  4  1  0
  4  5  2  0
  4 32  1  0
  5  1  1  0
  6  7  2  0
  7  8  1  0
  7 33  1  0
  8  9  2  0
  8 34  1  0
  9 12  1  0
  9 10  1  0
 10 11  2  0
 10 35  1  0
 11  6  1  0
 11 36  1  0
 12 13  1  0
 13 14  1  0
 13 37  1  0
 13 38  1  0
 14 15  1  0
 14 39  1  0
 14 40  1  0
 15 18  1  0
 15 16  1  0
 16 17  1  0
 16 41  1  0
 16 42  1  0
 17 12  1  0
 17 43  1  0
 17 44  1  0
 18 19  1  0
 18 45  1  0
 18 46  1  0
 19 20  1  0
 19 47  1  0
 19 48  1  0
 21  1  1  0
 21 22  1  0
 23 24  2  0
 24 25  1  0
 24 49  1  0
 25 26  2  0
 26 21  1  0
 26 27  1  0
 27 28  2  0
 27 50  1  0
 28 23  1  0
 29 30  3  0
 30 23  1  0
M  END
>  <minimizedAffinity>  (6) 
-6.28539

>  <mol_id>  (6) 
64281

>  <source_index>  (6) 
5

>  <layer>  (6) 
L2

>  <uniprot>  (6) 
O14757

>  <paff>  (6) 
7.3978999999999999

>  <smiles>  (6) 
N#Cc1cnc(Nc2cn(-c3ccc(N4CCN(CCF)CC4)cc3)cn2)cn1

$$$$
L2:O14757:72416
     RDKit          3D

 52 55  0  0  0  0  0  0  0  0999 V2000
   16.6186   -7.4343   15.6568 N   0  0  0  0  0  0  0  0  0  0  0  0
   16.1933   -6.4459   14.7556 C   0  0  0  0  0  0  0  0  0  0  0  0
   15.0063   -5.8653   15.0286 N   0  0  0  0  0  0  0  0  0  0  0  0
   14.5940   -4.8790   14.1855 C   0  0  0  0  0  0  0  0  0  0  0  0
   15.3247   -4.4416   13.0839 C   0  0  0  0  0  0  0  0  0  0  0  0
   16.5278   -5.0145   12.8022 N   0  0  0  0  0  0  0  0  0  0  0  0
   16.9396   -6.0083   13.6497 C   0  0  0  0  0  0  0  0  0  0  0  0
   17.4749   -7.1200   16.1104 H   0  0  0  0  0  0  0  0  0  0  0  0
   16.9151   -8.2553   15.1255 H   0  0  0  0  0  0  0  0  0  0  0  0
   14.8400   -3.3637   12.1979 C   0  0  0  0  0  0  0  0  0  0  0  0
   13.5258   -3.0591   12.2244 N   0  0  0  0  0  0  0  0  0  0  0  0
   13.1154   -2.0768   11.4052 C   0  0  0  0  0  0  0  0  0  0  0  0
   13.9564   -1.3897   10.5641 C   0  0  0  0  0  0  0  0  0  0  0  0
   15.2826   -1.7645   10.6006 C   0  0  0  0  0  0  0  0  0  0  0  0
   15.7406   -2.7458   11.4085 N   0  0  0  0  0  0  0  0  0  0  0  0
   16.2759   -1.1166    9.7597 C   0  0  0  0  0  0  0  0  0  0  0  0
   16.2755    0.1327    9.0981 C   0  0  0  0  0  0  0  0  0  0  0  0
   17.3974    0.3542    8.4076 N   0  0  0  0  0  0  0  0  0  0  0  0
   18.1389   -0.7422    8.6455 N   0  0  0  0  0  0  0  0  0  0  0  0
   17.5003   -1.6627    9.4251 C   0  0  0  0  0  0  0  0  0  0  0  0
   19.4319   -0.8826    8.0168 C   0  0  0  0  0  0  0  0  0  0  0  0
   20.3836   -1.6680    8.8753 C   0  0  0  0  0  0  0  0  0  0  0  0
   21.6613   -1.3107    8.5913 F   0  0  0  0  0  0  0  0  0  0  0  0
   20.1988   -1.4608   10.1949 F   0  0  0  0  0  0  0  0  0  0  0  0
   20.2907   -2.9969    8.6423 F   0  0  0  0  0  0  0  0  0  0  0  0
   18.2585   -6.6235   13.2961 C   0  0  0  0  0  0  0  0  0  0  0  0
   18.4508   -7.8328   13.3540 O   0  0  0  0  0  0  0  0  0  0  0  0
   19.2143   -5.7129   12.8877 N   0  0  0  0  0  0  0  0  0  0  0  0
   18.8782   -4.7585   12.7565 H   0  0  0  0  0  0  0  0  0  0  0  0
   20.4951   -6.1115   12.3215 C   0  0  1  0  0  0  0  0  0  0  0  0
   21.0857   -4.9839   11.4537 C   0  0  0  0  0  0  0  0  0  0  0  0
   22.1921   -4.2427   12.1968 C   0  0  0  0  0  0  0  0  0  0  0  0
   23.3145   -5.1985   12.6182 C   0  0  0  0  0  0  0  0  0  0  0  0
   22.8700   -6.5402   13.0148 N   0  0  0  0  0  0  0  0  0  0  0  0
   21.4694   -6.5400   13.4442 C   0  0  0  0  0  0  0  0  0  0  0  0
   22.9653   -7.1692   12.2162 H   0  0  0  0  0  0  0  0  0  0  0  0
   13.6850   -4.4283   14.3743 H   0  0  0  0  0  0  0  0  0  0  0  0
   12.1146   -1.8249   11.4079 H   0  0  0  0  0  0  0  0  0  0  0  0
   13.6164   -0.6390    9.9430 H   0  0  0  0  0  0  0  0  0  0  0  0
   15.4917    0.8025    9.1437 H   0  0  0  0  0  0  0  0  0  0  0  0
   17.8616   -2.5867    9.7093 H   0  0  0  0  0  0  0  0  0  0  0  0
   19.8418    0.0907    7.8452 H   0  0  0  0  0  0  0  0  0  0  0  0
   19.2999   -1.4102    7.0953 H   0  0  0  0  0  0  0  0  0  0  0  0
   20.3404   -6.9559   11.6827 H   0  0  0  0  0  0  0  0  0  0  0  0
   20.3088   -4.2922   11.2030 H   0  0  0  0  0  0  0  0  0  0  0  0
   21.5020   -5.4181   10.5688 H   0  0  0  0  0  0  0  0  0  0  0  0
   21.7786   -3.7834   13.0703 H   0  0  0  0  0  0  0  0  0  0  0  0
   22.6045   -3.5044   11.5412 H   0  0  0  0  0  0  0  0  0  0  0  0
   23.8295   -4.7607   13.4477 H   0  0  0  0  0  0  0  0  0  0  0  0
   23.9340   -5.3312   11.7559 H   0  0  0  0  0  0  0  0  0  0  0  0
   21.3641   -5.8615   14.2649 H   0  0  0  0  0  0  0  0  0  0  0  0
   21.2186   -7.5426   13.7214 H   0  0  0  0  0  0  0  0  0  0  0  0
  1  2  1  0
  1  8  1  0
  1  9  1  0
  2  3  2  0
  3  4  1  0
  4  5  2  0
  4 37  1  0
  5 10  1  0
  5  6  1  0
  6  7  2  0
  7 26  1  0
  7  2  1  0
 10 11  2  0
 11 12  1  0
 12 13  2  0
 12 38  1  0
 13 14  1  0
 13 39  1  0
 14 16  1  0
 14 15  2  0
 15 10  1  0
 16 17  1  0
 17 18  2  0
 17 40  1  0
 18 19  1  0
 19 21  1  0
 19 20  1  0
 20 16  2  0
 20 41  1  0
 21 22  1  0
 21 42  1  0
 21 43  1  0
 22 23  1  0
 22 24  1  0
 22 25  1  0
 26 27  2  0
 26 28  1  0
 28 30  1  0
 28 29  1  0
 30 31  1  0
 30 44  1  6
 31 32  1  0
 31 45  1  0
 31 46  1  0
 32 33  1  0
 32 47  1  0
 32 48  1  0
 33 34  1  0
 33 49  1  0
 33 50  1  0
 34 35  1  0
 34 36  1  0
 35 30  1  0
 35 51  1  0
 35 52  1  0
M  END
>  <minimizedAffinity>  (7) 
-7.42794

>  <mol_id>  (7) 
72416

>  <source_index>  (7) 
6

>  <layer>  (7) 
L2

>  <uniprot>  (7) 
O14757

>  <paff>  (7) 
6.2595999999999998

>  <smiles>  (7) 
Nc3ncc(c2nccc(c1cnn(CC(F)(F)F)c1)n2)nc3C(=O)N[C@H]4CCCNC4

$$$$
L2:O14757:111705
     RDKit          3D

 50 53  0  0  0  0  0  0  0  0999 V2000
   15.7142   -2.0030   10.7447 N   0  0  0  0  0  0  0  0  0  0  0  0
   14.4755   -1.4988   10.4097 C   0  0  0  0  0  0  0  0  0  0  0  0
   13.5472   -1.7833   11.2985 N   0  0  0  0  0  0  0  0  0  0  0  0
   14.2015   -2.4745   12.2676 C   0  0  0  0  0  0  0  0  0  0  0  0
   15.5344   -2.5989   11.9765 C   0  0  0  0  0  0  0  0  0  0  0  0
   16.2520    0.2044    8.6738 C   0  0  0  0  0  0  0  0  0  0  0  0
   17.2256   -0.8543    9.1175 C   0  0  0  0  0  0  0  0  0  0  0  0
   18.5132   -0.8056    8.5259 C   0  0  0  0  0  0  0  0  0  0  0  0
   19.5161   -1.7598    8.7614 C   0  0  0  0  0  0  0  0  0  0  0  0
   19.1809   -2.7929    9.6392 C   0  0  0  0  0  0  0  0  0  0  0  0
   17.9254   -2.8650   10.2580 C   0  0  0  0  0  0  0  0  0  0  0  0
   16.9434   -1.8889   10.0280 C   0  0  0  0  0  0  0  0  0  0  0  0
   20.7599   -1.6776    8.1616 N   0  0  0  0  0  0  0  0  0  0  0  0
   21.3157   -0.3963    7.6933 C   0  0  0  0  0  0  0  0  0  0  0  0
   22.3595   -0.6342    6.5775 C   0  0  0  0  0  0  0  0  0  0  0  0
   23.5178   -1.4530    6.9960 N   0  0  0  0  0  0  0  0  0  0  0  0
   24.1264   -2.1075    5.8413 C   0  0  0  0  0  0  0  0  0  0  0  0
   23.1389   -2.4240    8.0435 C   0  0  0  0  0  0  0  0  0  0  0  0
   21.6504   -2.8476    8.0653 C   0  0  0  0  0  0  0  0  0  0  0  0
   13.5131   -2.8990   13.3388 N   0  0  0  0  0  0  0  0  0  0  0  0
   12.5837   -2.5004   13.4040 H   0  0  0  0  0  0  0  0  0  0  0  0
   13.6377   -4.0960   14.0675 C   0  0  0  0  0  0  0  0  0  0  0  0
   14.4179   -4.1078   15.2311 C   0  0  0  0  0  0  0  0  0  0  0  0
   14.6351   -5.2087   15.9994 N   0  0  0  0  0  0  0  0  0  0  0  0
   14.0450   -6.3418   15.5519 C   0  0  0  0  0  0  0  0  0  0  0  0
   13.2849   -6.3593   14.3958 C   0  0  0  0  0  0  0  0  0  0  0  0
   13.0764   -5.2515   13.6378 N   0  0  0  0  0  0  0  0  0  0  0  0
   14.2418   -7.5326   16.3219 C   0  0  0  0  0  0  0  0  0  0  0  0
   14.4006   -8.4738   16.9847 N   0  0  0  0  0  0  0  0  0  0  0  0
   14.2949   -0.9549    9.5514 H   0  0  0  0  0  0  0  0  0  0  0  0
   16.2577   -3.0474   12.5602 H   0  0  0  0  0  0  0  0  0  0  0  0
   16.7319    0.8617    7.9791 H   0  0  0  0  0  0  0  0  0  0  0  0
   15.9213    0.7637    9.5239 H   0  0  0  0  0  0  0  0  0  0  0  0
   15.4106   -0.2596    8.2029 H   0  0  0  0  0  0  0  0  0  0  0  0
   18.7254   -0.0244    7.8858 H   0  0  0  0  0  0  0  0  0  0  0  0
   19.8793   -3.5260    9.8384 H   0  0  0  0  0  0  0  0  0  0  0  0
   17.7191   -3.6505   10.8947 H   0  0  0  0  0  0  0  0  0  0  0  0
   21.7854    0.1047    8.5139 H   0  0  0  0  0  0  0  0  0  0  0  0
   20.5207    0.2031    7.3014 H   0  0  0  0  0  0  0  0  0  0  0  0
   22.7223    0.3173    6.2489 H   0  0  0  0  0  0  0  0  0  0  0  0
   21.8622   -1.1784    5.8020 H   0  0  0  0  0  0  0  0  0  0  0  0
   24.3848   -1.3712    5.1092 H   0  0  0  0  0  0  0  0  0  0  0  0
   23.4317   -2.8027    5.4182 H   0  0  0  0  0  0  0  0  0  0  0  0
   25.0086   -2.6282    6.1504 H   0  0  0  0  0  0  0  0  0  0  0  0
   23.3699   -1.9886    8.9932 H   0  0  0  0  0  0  0  0  0  0  0  0
   23.6905   -3.3147    7.8262 H   0  0  0  0  0  0  0  0  0  0  0  0
   21.4818   -3.4838    8.9089 H   0  0  0  0  0  0  0  0  0  0  0  0
   21.4332   -3.3619    7.1525 H   0  0  0  0  0  0  0  0  0  0  0  0
   14.8573   -3.2215   15.5250 H   0  0  0  0  0  0  0  0  0  0  0  0
   12.8589   -7.2506   14.0971 H   0  0  0  0  0  0  0  0  0  0  0  0
  1  2  1  0
  2  3  2  0
  2 30  1  0
  3  4  1  0
  4 20  1  0
  4  5  2  0
  5  1  1  0
  5 31  1  0
  6  7  1  0
  6 32  1  0
  6 33  1  0
  6 34  1  0
  7  8  2  0
  8  9  1  0
  8 35  1  0
  9 13  1  0
  9 10  2  0
 10 11  1  0
 10 36  1  0
 11 12  2  0
 11 37  1  0
 12  1  1  0
 12  7  1  0
 13 14  1  0
 14 15  1  0
 14 38  1  0
 14 39  1  0
 15 16  1  0
 15 40  1  0
 15 41  1  0
 16 17  1  0
 16 18  1  0
 17 42  1  0
 17 43  1  0
 17 44  1  0
 18 19  1  0
 18 45  1  0
 18 46  1  0
 19 13  1  0
 19 47  1  0
 19 48  1  0
 20 22  1  0
 20 21  1  0
 22 23  2  0
 23 24  1  0
 23 49  1  0
 24 25  2  0
 25 28  1  0
 25 26  1  0
 26 27  2  0
 26 50  1  0
 27 22  1  0
 28 29  3  0
M  END
>  <minimizedAffinity>  (8) 
-7.25027

>  <mol_id>  (8) 
111705

>  <source_index>  (8) 
7

>  <layer>  (8) 
L2

>  <uniprot>  (8) 
O14757

>  <paff>  (8) 
6.3334999999999999

>  <smiles>  (8) 
Cc1cc(N2CCN(C)CC2)ccc1-n1cnc(Nc2cnc(C#N)cn2)c1

$$$$
L2:O14757:124280
     RDKit          3D

 47 51  0  0  0  0  0  0  0  0999 V2000
   16.4739   -2.5164   11.1287 C   0  0  0  0  0  0  0  0  0  0  0  0
   15.2458   -1.8652   10.9219 C   0  0  0  0  0  0  0  0  0  0  0  0
   15.1390   -0.9424    9.8977 C   0  0  0  0  0  0  0  0  0  0  0  0
   16.1426   -0.6625    9.0472 N   0  0  0  0  0  0  0  0  0  0  0  0
   17.3091   -1.3089    9.2296 C   0  0  0  0  0  0  0  0  0  0  0  0
   18.3523   -1.0285    8.3617 C   0  0  0  0  0  0  0  0  0  0  0  0
   19.5891   -1.6495    8.4951 C   0  0  0  0  0  0  0  0  0  0  0  0
   19.7437   -2.5548    9.5207 C   0  0  0  0  0  0  0  0  0  0  0  0
   18.7591   -2.8642   10.3888 N   0  0  0  0  0  0  0  0  0  0  0  0
   17.5493   -2.2550   10.2554 C   0  0  0  0  0  0  0  0  0  0  0  0
   16.8159   -4.5740   14.1803 C   0  0  0  0  0  0  0  0  0  0  0  0
   16.6045   -3.2923   13.6182 C   0  0  0  0  0  0  0  0  0  0  0  0
   16.6225   -3.4618   12.2477 C   0  0  0  0  0  0  0  0  0  0  0  0
   16.7958   -4.8102   12.0801 N   0  0  0  0  0  0  0  0  0  0  0  0
   16.9582   -5.4922   13.2234 N   0  0  0  0  0  0  0  0  0  0  0  0
   16.8428   -5.3186   11.2028 H   0  0  0  0  0  0  0  0  0  0  0  0
   16.8671   -4.7600   15.5130 N   0  0  0  0  0  0  0  0  0  0  0  0
   17.6862   -4.4678   16.0328 H   0  0  0  0  0  0  0  0  0  0  0  0
   14.2557   -6.3685   18.2489 C   0  0  0  0  0  0  0  0  0  0  0  0
   15.5908   -6.1450   18.5343 C   0  0  0  0  0  0  0  0  0  0  0  0
   16.4563   -5.6133   17.6319 N   0  0  0  0  0  0  0  0  0  0  0  0
   15.9519   -5.3013   16.4111 C   0  0  0  0  0  0  0  0  0  0  0  0
   14.6016   -5.5338   16.1416 C   0  0  0  0  0  0  0  0  0  0  0  0
   13.7269   -6.0685   17.0413 N   0  0  0  0  0  0  0  0  0  0  0  0
   12.6271   -7.3869   19.9910 N   0  0  0  0  0  0  0  0  0  0  0  0
   13.3779   -6.9327   19.2291 C   0  0  0  0  0  0  0  0  0  0  0  0
   14.1647   -2.0838   11.7383 O   0  0  0  0  0  0  0  0  0  0  0  0
   12.9397   -1.8855   11.0049 C   0  0  0  0  0  0  0  0  0  0  0  0
   11.7908   -2.6556   11.6459 C   0  0  0  0  0  0  0  0  0  0  0  0
   11.0608   -3.2307   10.6503 F   0  0  0  0  0  0  0  0  0  0  0  0
   10.9438   -1.9037   12.7033 C   0  0  0  0  0  0  0  0  0  0  0  0
   10.8990   -3.1456   13.5122 N   0  0  0  0  0  0  0  0  0  0  0  0
   12.1297   -3.6054   12.8225 C   0  0  0  0  0  0  0  0  0  0  0  0
   10.0884   -3.7304   13.2955 H   0  0  0  0  0  0  0  0  0  0  0  0
   14.2436   -0.4430    9.7799 H   0  0  0  0  0  0  0  0  0  0  0  0
   18.2084   -0.3455    7.6016 H   0  0  0  0  0  0  0  0  0  0  0  0
   20.3646   -1.4390    7.8475 H   0  0  0  0  0  0  0  0  0  0  0  0
   20.6584   -3.0197    9.6307 H   0  0  0  0  0  0  0  0  0  0  0  0
   16.4647   -2.4074   14.1305 H   0  0  0  0  0  0  0  0  0  0  0  0
   15.9441   -6.3925   19.4718 H   0  0  0  0  0  0  0  0  0  0  0  0
   14.2441   -5.2862   15.2057 H   0  0  0  0  0  0  0  0  0  0  0  0
   13.0736   -2.2282   10.0002 H   0  0  0  0  0  0  0  0  0  0  0  0
   12.7001   -0.8427   11.0155 H   0  0  0  0  0  0  0  0  0  0  0  0
    9.9894   -1.5734   12.3497 H   0  0  0  0  0  0  0  0  0  0  0  0
   11.2848   -0.9826   13.1278 H   0  0  0  0  0  0  0  0  0  0  0  0
   12.1289   -4.6439   12.5650 H   0  0  0  0  0  0  0  0  0  0  0  0
   13.0820   -3.5620   13.3084 H   0  0  0  0  0  0  0  0  0  0  0  0
  1  2  1  0
  2 27  1  0
  2  3  2  0
  3  4  1  0
  3 35  1  0
  4  5  2  0
  5  6  1  0
  6  7  2  0
  6 36  1  0
  7  8  1  0
  7 37  1  0
  8  9  2  0
  8 38  1  0
  9 10  1  0
 10  1  2  0
 10  5  1  0
 11 12  1  0
 12 13  2  0
 12 39  1  0
 13  1  1  0
 13 14  1  0
 14 15  1  0
 14 16  1  0
 15 11  2  0
 17 11  1  0
 17 18  1  0
 19 20  2  0
 20 21  1  0
 20 40  1  0
 21 22  2  0
 22 17  1  0
 22 23  1  0
 23 24  2  0
 23 41  1  0
 24 19  1  0
 25 26  3  0
 26 19  1  0
 27 28  1  0
 28 29  1  0
 28 42  1  0
 28 43  1  0
 29 30  1  0
 29 31  1  0
 31 32  1  0
 31 44  1  0
 31 45  1  0
 32 33  1  0
 32 34  1  0
 33 29  1  0
 33 46  1  0
 33 47  1  0
M  END
>  <minimizedAffinity>  (9) 
-7.54191

>  <mol_id>  (9) 
124280

>  <source_index>  (9) 
8

>  <layer>  (9) 
L2

>  <uniprot>  (9) 
O14757

>  <paff>  (9) 
9.2218

>  <smiles>  (9) 
N#Cc1cnc(Nc2cc(-c3c(OCC4(F)CNC4)cnc4cccnc34)[nH]n2)cn1

$$$$
L2:O14757:126650
     RDKit          3D

 44 47  0  0  0  0  0  0  0  0999 V2000
   19.9076   -1.2007    9.2577 C   0  0  0  0  0  0  0  0  0  0  0  0
   19.0945   -0.4275   10.0254 N   0  0  0  0  0  0  0  0  0  0  0  0
   18.4802   -1.0328   11.0691 C   0  0  0  0  0  0  0  0  0  0  0  0
   18.6174   -2.3767   11.3964 C   0  0  0  0  0  0  0  0  0  0  0  0
   19.4714   -3.1284   10.5697 C   0  0  0  0  0  0  0  0  0  0  0  0
   20.1736   -2.5620    9.4928 C   0  0  0  0  0  0  0  0  0  0  0  0
   21.0212    0.0649    7.2751 N   0  0  0  0  0  0  0  0  0  0  0  0
   20.5069   -0.4985    8.1531 C   0  0  0  0  0  0  0  0  0  0  0  0
   17.9790   -3.0094   12.4655 N   0  0  0  0  0  0  0  0  0  0  0  0
   18.5428   -3.5783   13.0800 H   0  0  0  0  0  0  0  0  0  0  0  0
   16.6615   -3.0346   12.9095 C   0  0  0  0  0  0  0  0  0  0  0  0
   16.3435   -3.4333   14.1515 N   0  0  0  0  0  0  0  0  0  0  0  0
   15.0383   -3.4304   14.4930 C   0  0  0  0  0  0  0  0  0  0  0  0
   14.0382   -3.0545   13.6315 C   0  0  0  0  0  0  0  0  0  0  0  0
   14.4521   -2.6483   12.3796 C   0  0  0  0  0  0  0  0  0  0  0  0
   15.7503   -2.6298   12.0062 N   0  0  0  0  0  0  0  0  0  0  0  0
   13.4289   -2.0963   11.4272 C   0  0  0  0  0  0  0  0  0  0  0  0
   12.0770   -2.7649   11.6250 C   0  0  0  0  0  0  0  0  0  0  0  0
   11.6767   -2.8275   13.0846 C   0  0  0  0  0  0  0  0  0  0  0  0
   10.5061   -2.7782   13.4504 O   0  0  0  0  0  0  0  0  0  0  0  0
   12.6866   -3.0522   13.9845 N   0  0  0  0  0  0  0  0  0  0  0  0
   12.3990   -3.2223   14.9413 H   0  0  0  0  0  0  0  0  0  0  0  0
   20.9689   -3.3269    8.6358 N   0  0  0  0  0  0  0  0  0  0  0  0
   20.9029   -3.0708    7.6455 H   0  0  0  0  0  0  0  0  0  0  0  0
   22.3414   -3.7422    8.9595 C   0  0  2  0  0  0  0  0  0  0  0  0
   23.0051   -2.7539    9.9206 C   0  0  0  0  0  0  0  0  0  0  0  0
   23.8040   -1.7950    9.0385 C   0  0  0  0  0  0  0  0  0  0  0  0
   23.5049   -2.1697    7.6574 N   0  0  0  0  0  0  0  0  0  0  0  0
   23.2169   -3.6082    7.7042 C   0  0  0  0  0  0  0  0  0  0  0  0
   24.2932   -1.9723    7.0431 H   0  0  0  0  0  0  0  0  0  0  0  0
   17.8662   -0.4550   11.6642 H   0  0  0  0  0  0  0  0  0  0  0  0
   19.5868   -4.1358   10.7617 H   0  0  0  0  0  0  0  0  0  0  0  0
   14.7795   -3.7249   15.4476 H   0  0  0  0  0  0  0  0  0  0  0  0
   13.7588   -2.2659   10.4236 H   0  0  0  0  0  0  0  0  0  0  0  0
   13.3200   -1.0488   11.6163 H   0  0  0  0  0  0  0  0  0  0  0  0
   12.1257   -3.7613   11.2382 H   0  0  0  0  0  0  0  0  0  0  0  0
   11.3437   -2.1815   11.1084 H   0  0  0  0  0  0  0  0  0  0  0  0
   22.2731   -4.7327    9.3585 H   0  0  0  0  0  0  0  0  0  0  0  0
   23.6554   -3.2695   10.5960 H   0  0  0  0  0  0  0  0  0  0  0  0
   22.2828   -2.2352   10.5157 H   0  0  0  0  0  0  0  0  0  0  0  0
   24.8513   -1.8973    9.2325 H   0  0  0  0  0  0  0  0  0  0  0  0
   23.5423   -0.7758    9.2323 H   0  0  0  0  0  0  0  0  0  0  0  0
   24.1174   -4.1782    7.8002 H   0  0  0  0  0  0  0  0  0  0  0  0
   22.7426   -3.9733    6.8173 H   0  0  0  0  0  0  0  0  0  0  0  0
  1  2  2  0
  2  3  1  0
  3  4  2  0
  3 31  1  0
  4  9  1  0
  4  5  1  0
  5  6  2  0
  5 32  1  0
  6 23  1  0
  6  1  1  0
  7  8  3  0
  8  1  1  0
  9 11  1  0
  9 10  1  0
 11 12  2  0
 12 13  1  0
 13 14  2  0
 13 33  1  0
 14 15  1  0
 15 16  2  0
 15 17  1  0
 16 11  1  0
 17 18  1  0
 17 34  1  0
 17 35  1  0
 18 19  1  0
 18 36  1  0
 18 37  1  0
 19 20  2  0
 19 21  1  0
 21 14  1  0
 21 22  1  0
 23 25  1  0
 23 24  1  0
 25 26  1  0
 25 38  1  1
 26 27  1  0
 26 39  1  0
 26 40  1  0
 27 28  1  0
 27 41  1  0
 27 42  1  0
 28 29  1  0
 28 30  1  0
 29 25  1  0
 29 43  1  0
 29 44  1  0
M  END
>  <minimizedAffinity>  (10) 
-7.09079

>  <mol_id>  (10) 
126650

>  <source_index>  (10) 
9

>  <layer>  (10) 
L2

>  <uniprot>  (10) 
O14757

>  <paff>  (10) 
7.3768000000000002

>  <smiles>  (10) 
N#Cc1ncc(Nc2ncc3c(n2)CCC(=O)N3)cc1N[C@@H]1CCNC1

$$$$
