L2:O14757:4906
     RDKit          3D

 39 41  0  0  0  0  0  0  0  0999 V2000
   13.5344   -2.9710   12.5669 C   0  0  0  0  0  0  0  0  0  0  0  0
   14.7919   -3.0706   12.0233 C   0  0  0  0  0  0  0  0  0  0  0  0
   14.8820   -2.0620   11.0846 N   0  0  0  0  0  0  0  0  0  0  0  0
   13.6542   -1.4355   11.1095 C   0  0  0  0  0  0  0  0  0  0  0  0
   12.8286   -1.9718   11.9802 N   0  0  0  0  0  0  0  0  0  0  0  0
   16.0019   -1.7409   10.2625 C   0  0  0  0  0  0  0  0  0  0  0  0
   15.9530   -0.6543    9.3775 C   0  0  0  0  0  0  0  0  0  0  0  0
   17.0549   -0.3393    8.5682 C   0  0  0  0  0  0  0  0  0  0  0  0
   18.2174   -1.1028    8.6295 C   0  0  0  0  0  0  0  0  0  0  0  0
   18.2689   -2.1814    9.5131 C   0  0  0  0  0  0  0  0  0  0  0  0
   17.1747   -2.5038   10.3241 C   0  0  0  0  0  0  0  0  0  0  0  0
   19.3599   -0.9071    7.9076 O   0  0  0  0  0  0  0  0  0  0  0  0
   20.5439   -1.6107    8.2911 C   0  0  0  0  0  0  0  0  0  0  0  0
   21.7966   -0.7814    7.9822 C   0  0  0  0  0  0  0  0  0  0  0  0
   21.4792    0.6207    7.7126 N   0  0  0  0  0  0  0  0  0  0  0  0
   20.9049    0.6853    6.8720 H   0  0  0  0  0  0  0  0  0  0  0  0
   22.3419    1.1217    7.4986 H   0  0  0  0  0  0  0  0  0  0  0  0
   13.0417   -3.7912   13.5112 N   0  0  0  0  0  0  0  0  0  0  0  0
   12.0422   -3.9318   13.5601 H   0  0  0  0  0  0  0  0  0  0  0  0
   14.9922   -6.5395   15.8927 C   0  0  0  0  0  0  0  0  0  0  0  0
   15.2455   -5.1863   16.0269 C   0  0  0  0  0  0  0  0  0  0  0  0
   14.6389   -4.2498   15.2557 N   0  0  0  0  0  0  0  0  0  0  0  0
   13.7467   -4.6865   14.3376 C   0  0  0  0  0  0  0  0  0  0  0  0
   13.5019   -6.0609   14.2253 C   0  0  0  0  0  0  0  0  0  0  0  0
   14.1133   -7.0148   14.9775 N   0  0  0  0  0  0  0  0  0  0  0  0
   16.2287   -8.2519   17.3977 N   0  0  0  0  0  0  0  0  0  0  0  0
   15.6582   -7.4990   16.7204 C   0  0  0  0  0  0  0  0  0  0  0  0
   15.5210   -3.7592   12.2669 H   0  0  0  0  0  0  0  0  0  0  0  0
   13.4098   -0.6323   10.5094 H   0  0  0  0  0  0  0  0  0  0  0  0
   15.0973   -0.0802    9.3209 H   0  0  0  0  0  0  0  0  0  0  0  0
   17.0033    0.4643    7.9227 H   0  0  0  0  0  0  0  0  0  0  0  0
   19.1278   -2.7507    9.5696 H   0  0  0  0  0  0  0  0  0  0  0  0
   17.2324   -3.3067   10.9699 H   0  0  0  0  0  0  0  0  0  0  0  0
   20.5930   -2.5338    7.7523 H   0  0  0  0  0  0  0  0  0  0  0  0
   20.5065   -1.7948    9.3445 H   0  0  0  0  0  0  0  0  0  0  0  0
   22.2811   -1.1962    7.1231 H   0  0  0  0  0  0  0  0  0  0  0  0
   22.4324   -0.8145    8.8422 H   0  0  0  0  0  0  0  0  0  0  0  0
   15.9225   -4.8771   16.7418 H   0  0  0  0  0  0  0  0  0  0  0  0
   12.8108   -6.3708   13.5243 H   0  0  0  0  0  0  0  0  0  0  0  0
  1  2  2  0
  2  3  1  0
  2 28  1  0
  3  6  1  0
  3  4  1  0
  4  5  2  0
  4 29  1  0
  5  1  1  0
  6  7  2  0
  7  8  1  0
  7 30  1  0
  8  9  2  0
  8 31  1  0
  9 12  1  0
  9 10  1  0
 10 11  2  0
 10 32  1  0
 11  6  1  0
 11 33  1  0
 12 13  1  0
 13 14  1  0
 13 34  1  0
 13 35  1  0
 14 15  1  0
 14 36  1  0
 14 37  1  0
 15 16  1  0
 15 17  1  0
 18  1  1  0
 18 19  1  0
 20 21  2  0
 21 22  1  0
 21 38  1  0
 22 23  2  0
 23 18  1  0
 23 24  1  0
 24 25  2  0
 24 39  1  0
 25 20  1  0
 26 27  3  0
 27 20  1  0
M  END
>  <minimizedAffinity>  (1) 
-6.87559

>  <mol_id>  (1) 
4906

>  <source_index>  (1) 
0

>  <layer>  (1) 
L2

>  <uniprot>  (1) 
O14757

>  <paff>  (1) 
7.5528000000000004

>  <smiles>  (1) 
N#Cc1cnc(Nc2cn(-c3ccc(OCCN)cc3)cn2)cn1

$$$$
L2:O14757:10681
     RDKit          3D

 55 59  0  0  0  0  0  0  0  0999 V2000
   15.4830   -1.4513   10.5142 C   0  0  0  0  0  0  0  0  0  0  0  0
   14.4148   -0.7405    9.9689 C   0  0  0  0  0  0  0  0  0  0  0  0
   13.1594   -0.7374   10.4923 N   0  0  0  0  0  0  0  0  0  0  0  0
   12.9631   -1.4872   11.5976 C   0  0  0  0  0  0  0  0  0  0  0  0
   11.6977   -1.4211   12.1326 N   0  0  0  0  0  0  0  0  0  0  0  0
   14.0299   -2.2056   12.1545 C   0  0  0  0  0  0  0  0  0  0  0  0
   15.3003   -2.1940   11.6352 N   0  0  0  0  0  0  0  0  0  0  0  0
   11.4201   -2.1196   12.8177 H   0  0  0  0  0  0  0  0  0  0  0  0
   11.0093   -0.8878   11.6243 H   0  0  0  0  0  0  0  0  0  0  0  0
   19.2110   -2.1250   10.1295 C   0  0  0  0  0  0  0  0  0  0  0  0
   19.4847   -1.4722    8.9237 C   0  0  0  0  0  0  0  0  0  0  0  0
   18.4660   -0.8104    8.2401 C   0  0  0  0  0  0  0  0  0  0  0  0
   17.1712   -0.8014    8.7574 C   0  0  0  0  0  0  0  0  0  0  0  0
   16.2248   -0.1654    8.0504 F   0  0  0  0  0  0  0  0  0  0  0  0
   16.8481   -1.4432    9.9609 C   0  0  0  0  0  0  0  0  0  0  0  0
   17.8975   -2.1078   10.6306 C   0  0  0  0  0  0  0  0  0  0  0  0
   21.7834   -5.5994   12.5615 C   0  0  0  0  0  0  0  0  0  0  0  0
   21.3842   -4.3687   11.9238 N   0  0  0  0  0  0  0  0  0  0  0  0
   20.1781   -4.0974   11.3461 C   0  0  0  0  0  0  0  0  0  0  0  0
   20.2692   -2.8174   10.8402 C   0  0  0  0  0  0  0  0  0  0  0  0
   21.5717   -2.4008   11.1999 C   0  0  0  0  0  0  0  0  0  0  0  0
   22.2512   -3.3424   11.8609 N   0  0  0  0  0  0  0  0  0  0  0  0
   13.8358   -3.0803   13.3588 C   0  0  0  0  0  0  0  0  0  0  0  0
   13.1927   -2.7194   14.3399 O   0  0  0  0  0  0  0  0  0  0  0  0
   14.4254   -4.3221   13.2615 N   0  0  0  0  0  0  0  0  0  0  0  0
   14.9607   -4.5329   12.4208 H   0  0  0  0  0  0  0  0  0  0  0  0
   14.3839   -5.3315   14.3147 C   0  0  2  0  0  0  0  0  0  0  0  0
   15.5146   -5.0917   15.3352 C   0  0  0  0  0  0  0  0  0  0  0  0
   16.6676   -6.0919   15.2009 C   0  0  0  0  0  0  0  0  0  0  0  0
   16.9235   -6.4329   13.7486 C   0  0  0  0  0  0  0  0  0  0  0  0
   18.2849   -6.9688   13.3706 C   0  0  0  0  0  0  0  0  0  0  0  0
   17.9067   -5.5684   12.9951 C   0  0  0  0  0  0  0  0  0  0  0  0
   15.7585   -6.9221   12.9769 N   0  0  0  0  0  0  0  0  0  0  0  0
   14.4823   -6.7378   13.6896 C   0  0  0  0  0  0  0  0  0  0  0  0
   15.8632   -7.9090   12.7402 H   0  0  0  0  0  0  0  0  0  0  0  0
   14.5869   -0.1835    9.1173 H   0  0  0  0  0  0  0  0  0  0  0  0
   20.4424   -1.4804    8.5392 H   0  0  0  0  0  0  0  0  0  0  0  0
   18.6701   -0.3272    7.3513 H   0  0  0  0  0  0  0  0  0  0  0  0
   17.6943   -2.5968   11.5164 H   0  0  0  0  0  0  0  0  0  0  0  0
   20.9762   -6.3005   12.5205 H   0  0  0  0  0  0  0  0  0  0  0  0
   22.0363   -5.4061   13.5830 H   0  0  0  0  0  0  0  0  0  0  0  0
   22.6338   -6.0045   12.0540 H   0  0  0  0  0  0  0  0  0  0  0  0
   19.3604   -4.7251   11.2974 H   0  0  0  0  0  0  0  0  0  0  0  0
   21.9561   -1.4696   10.9760 H   0  0  0  0  0  0  0  0  0  0  0  0
   13.4539   -5.2586   14.8387 H   0  0  0  0  0  0  0  0  0  0  0  0
   15.1065   -5.1728   16.3210 H   0  0  0  0  0  0  0  0  0  0  0  0
   15.9139   -4.1172   15.1459 H   0  0  0  0  0  0  0  0  0  0  0  0
   16.4181   -6.9868   15.7317 H   0  0  0  0  0  0  0  0  0  0  0  0
   17.5524   -5.6488   15.6080 H   0  0  0  0  0  0  0  0  0  0  0  0
   18.3721   -7.7199   12.6136 H   0  0  0  0  0  0  0  0  0  0  0  0
   19.0969   -7.4137   13.9069 H   0  0  0  0  0  0  0  0  0  0  0  0
   17.7244   -5.3209   11.9702 H   0  0  0  0  0  0  0  0  0  0  0  0
   18.3378   -4.6019   13.1530 H   0  0  0  0  0  0  0  0  0  0  0  0
   14.4087   -7.4699   14.4665 H   0  0  0  0  0  0  0  0  0  0  0  0
   13.6845   -6.8494   12.9853 H   0  0  0  0  0  0  0  0  0  0  0  0
  1  2  2  0
  2  3  1  0
  2 36  1  0
  3  4  2  0
  4  5  1  0
  4  6  1  0
  5  8  1  0
  5  9  1  0
  6 23  1  0
  6  7  2  0
  7  1  1  0
 10 11  2  0
 11 12  1  0
 11 37  1  0
 12 13  2  0
 12 38  1  0
 13 14  1  0
 13 15  1  0
 15  1  1  0
 15 16  2  0
 16 10  1  0
 16 39  1  0
 17 18  1  0
 17 40  1  0
 17 41  1  0
 17 42  1  0
 18 19  1  0
 19 20  2  0
 19 43  1  0
 20 10  1  0
 20 21  1  0
 21 22  2  0
 21 44  1  0
 22 18  1  0
 23 24  2  0
 23 25  1  0
 25 27  1  0
 25 26  1  0
 27 28  1  0
 27 45  1  1
 28 29  1  0
 28 46  1  0
 28 47  1  0
 29 30  1  0
 29 48  1  0
 29 49  1  0
 30 31  1  0
 30 33  1  0
 31 32  1  0
 31 50  1  0
 31 51  1  0
 32 30  1  0
 32 52  1  0
 32 53  1  0
 33 34  1  0
 33 35  1  0
 34 27  1  0
 34 54  1  0
 34 55  1  0
M  END
>  <minimizedAffinity>  (2) 
-9.27592

>  <mol_id>  (2) 
10681

>  <source_index>  (2) 
1

>  <layer>  (2) 
L2

>  <uniprot>  (2) 
O14757

>  <paff>  (2) 
7.2595999999999998

>  <smiles>  (2) 
Cn1cc(-c2ccc(F)c(-c3cnc(N)c(C(=O)NC4CCC5(CC5)NC4)n3)c2)cn1

$$$$
L2:O14757:55958
     RDKit          3D

 45 47  0  0  0  0  0  0  0  0999 V2000
   18.1356   -1.1085   10.6376 C   0  0  0  0  0  0  0  0  0  0  0  0
   18.3436   -0.1211    9.6727 C   0  0  0  0  0  0  0  0  0  0  0  0
   17.3889    0.3595    8.8444 N   0  0  0  0  0  0  0  0  0  0  0  0
   16.1602   -0.1786    8.9749 C   0  0  0  0  0  0  0  0  0  0  0  0
   15.8478   -1.1885    9.8768 C   0  0  0  0  0  0  0  0  0  0  0  0
   16.8396   -1.6622   10.7575 C   0  0  0  0  0  0  0  0  0  0  0  0
   16.5351   -2.7021   11.7625 C   0  0  0  0  0  0  0  0  0  0  0  0
   16.2647   -4.0560   11.6628 C   0  0  0  0  0  0  0  0  0  0  0  0
   16.1359   -4.5352   12.9849 C   0  0  0  0  0  0  0  0  0  0  0  0
   16.2469   -3.5428   13.8671 N   0  0  0  0  0  0  0  0  0  0  0  0
   16.4637   -2.4563   13.1104 N   0  0  0  0  0  0  0  0  0  0  0  0
   16.5544   -1.5533   13.5654 H   0  0  0  0  0  0  0  0  0  0  0  0
   15.9021   -5.8046   13.3662 N   0  0  0  0  0  0  0  0  0  0  0  0
   16.2893   -6.5037   12.7444 H   0  0  0  0  0  0  0  0  0  0  0  0
   15.0162   -6.3273   14.3197 C   0  0  0  0  0  0  0  0  0  0  0  0
   13.6726   -6.5202   13.9746 C   0  0  0  0  0  0  0  0  0  0  0  0
   12.7333   -7.0372   14.8101 N   0  0  0  0  0  0  0  0  0  0  0  0
   13.1854   -7.3797   16.0389 C   0  0  0  0  0  0  0  0  0  0  0  0
   14.5109   -7.2083   16.3992 C   0  0  0  0  0  0  0  0  0  0  0  0
   15.4438   -6.6847   15.5566 N   0  0  0  0  0  0  0  0  0  0  0  0
   12.2366   -7.9331   16.9572 C   0  0  0  0  0  0  0  0  0  0  0  0
   11.4341   -8.3742   17.6724 N   0  0  0  0  0  0  0  0  0  0  0  0
   20.2905   -2.1145   10.8512 C   0  0  0  0  0  0  0  0  0  0  0  0
   19.1173   -1.5922   11.4685 O   0  0  0  0  0  0  0  0  0  0  0  0
   14.5531   -1.6355    9.8906 O   0  0  0  0  0  0  0  0  0  0  0  0
   13.6542   -0.6069   10.3505 C   0  0  0  0  0  0  0  0  0  0  0  0
   12.3450   -1.2786   10.7600 C   0  0  1  0  0  0  0  0  0  0  0  0
   11.7383   -1.7446    9.6239 F   0  0  0  0  0  0  0  0  0  0  0  0
   12.5403   -2.4718   11.7039 C   0  0  0  0  0  0  0  0  0  0  0  0
   13.3604   -2.2068   12.8882 N   0  0  0  0  0  0  0  0  0  0  0  0
   13.0271   -1.3524   13.3533 H   0  0  0  0  0  0  0  0  0  0  0  0
   14.3235   -1.9957   12.6279 H   0  0  0  0  0  0  0  0  0  0  0  0
   19.2945    0.2702    9.5853 H   0  0  0  0  0  0  0  0  0  0  0  0
   15.4063    0.1809    8.3688 H   0  0  0  0  0  0  0  0  0  0  0  0
   16.1750   -4.6062   10.7943 H   0  0  0  0  0  0  0  0  0  0  0  0
   13.3761   -6.2521   13.0231 H   0  0  0  0  0  0  0  0  0  0  0  0
   14.8049   -7.4895   17.3476 H   0  0  0  0  0  0  0  0  0  0  0  0
   20.9689   -2.4550   11.6053 H   0  0  0  0  0  0  0  0  0  0  0  0
   20.7590   -1.3481   10.2698 H   0  0  0  0  0  0  0  0  0  0  0  0
   20.0247   -2.9326   10.2149 H   0  0  0  0  0  0  0  0  0  0  0  0
   13.4723    0.0956    9.5641 H   0  0  0  0  0  0  0  0  0  0  0  0
   14.0802   -0.0823   11.1801 H   0  0  0  0  0  0  0  0  0  0  0  0
   11.7615   -0.5476   11.2796 H   0  0  0  0  0  0  0  0  0  0  0  0
   13.0061   -3.2592   11.1490 H   0  0  0  0  0  0  0  0  0  0  0  0
   11.5662   -2.7220   12.0691 H   0  0  0  0  0  0  0  0  0  0  0  0
  1  2  2  0
  2  3  1  0
  2 33  1  0
  3  4  2  0
  4  5  1  0
  4 34  1  0
  5 25  1  0
  5  6  2  0
  6  7  1  0
  6  1  1  0
  7  8  2  0
  8  9  1  0
  8 35  1  0
  9 13  1  0
  9 10  2  0
 10 11  1  0
 11  7  1  0
 11 12  1  0
 13 15  1  0
 13 14  1  0
 15 16  2  0
 16 17  1  0
 16 36  1  0
 17 18  2  0
 18 21  1  0
 18 19  1  0
 19 20  2  0
 19 37  1  0
 20 15  1  0
 21 22  3  0
 23 24  1  0
 23 38  1  0
 23 39  1  0
 23 40  1  0
 24  1  1  0
 25 26  1  0
 26 27  1  0
 26 41  1  0
 26 42  1  0
 27 28  1  0
 27 29  1  0
 27 43  1  1
 29 30  1  0
 29 44  1  0
 29 45  1  0
 30 31  1  0
 30 32  1  0
M  END
>  <minimizedAffinity>  (3) 
-6.75926

>  <mol_id>  (3) 
55958

>  <source_index>  (3) 
2

>  <layer>  (3) 
L2

>  <uniprot>  (3) 
O14757

>  <paff>  (3) 
9.2218

>  <smiles>  (3) 
COc1cncc(OC[C@@H](F)CN)c1-c1cc(Nc2cnc(C#N)cn2)n[nH]1

$$$$
L2:O14757:60774
     RDKit          3D

 49 52  0  0  0  0  0  0  0  0999 V2000
   18.0989   -1.7817    9.3266 C   0  0  0  0  0  0  0  0  0  0  0  0
   18.0006   -0.7220    8.4214 C   0  0  0  0  0  0  0  0  0  0  0  0
   16.8384    0.0252    8.3958 C   0  0  0  0  0  0  0  0  0  0  0  0
   15.7822   -0.2071    9.1945 N   0  0  0  0  0  0  0  0  0  0  0  0
   15.8811   -1.2469   10.0562 C   0  0  0  0  0  0  0  0  0  0  0  0
   17.0119   -2.0778   10.1786 C   0  0  0  0  0  0  0  0  0  0  0  0
   17.0563   -3.1887   11.1530 C   0  0  0  0  0  0  0  0  0  0  0  0
   17.2468   -3.2345   12.5227 C   0  0  0  0  0  0  0  0  0  0  0  0
   17.1900   -4.6003   12.8955 C   0  0  0  0  0  0  0  0  0  0  0  0
   16.9529   -5.3663   11.8321 N   0  0  0  0  0  0  0  0  0  0  0  0
   16.9089   -4.5087   10.8057 N   0  0  0  0  0  0  0  0  0  0  0  0
   16.7827   -4.8819    9.8702 H   0  0  0  0  0  0  0  0  0  0  0  0
   17.3180   -4.9886   14.1832 N   0  0  0  0  0  0  0  0  0  0  0  0
   18.2366   -5.2381   14.5208 H   0  0  0  0  0  0  0  0  0  0  0  0
   16.3026   -5.3099   15.1022 C   0  0  0  0  0  0  0  0  0  0  0  0
   16.6524   -5.6778   16.4076 C   0  0  0  0  0  0  0  0  0  0  0  0
   15.7594   -5.9988   17.3818 N   0  0  0  0  0  0  0  0  0  0  0  0
   14.4594   -5.9190   17.0092 C   0  0  0  0  0  0  0  0  0  0  0  0
   14.0888   -5.5518   15.7281 C   0  0  0  0  0  0  0  0  0  0  0  0
   14.9944   -5.2518   14.7637 N   0  0  0  0  0  0  0  0  0  0  0  0
   13.4741   -6.2360   17.9982 C   0  0  0  0  0  0  0  0  0  0  0  0
   12.6712   -6.5299   18.7854 N   0  0  0  0  0  0  0  0  0  0  0  0
   20.3472   -2.0247   10.1258 C   0  0  0  0  0  0  0  0  0  0  0  0
   19.2230   -2.5636    9.4420 O   0  0  0  0  0  0  0  0  0  0  0  0
   14.8194   -1.4824   10.9124 O   0  0  0  0  0  0  0  0  0  0  0  0
   13.6114   -1.9507   10.3111 C   0  0  0  0  0  0  0  0  0  0  0  0
   12.4414   -1.7261   11.2549 C   0  0  0  0  0  0  0  0  0  0  0  0
   12.3637   -2.6137   12.4845 C   0  0  0  0  0  0  0  0  0  0  0  0
   11.3993   -2.8268   11.3535 C   0  0  0  0  0  0  0  0  0  0  0  0
   11.9674   -0.2966   11.4055 C   0  0  0  0  0  0  0  0  0  0  0  0
   12.7512    0.6001   10.5697 N   0  0  0  0  0  0  0  0  0  0  0  0
   13.7024    0.6358   10.9498 H   0  0  0  0  0  0  0  0  0  0  0  0
   12.8292    0.2100    9.6333 H   0  0  0  0  0  0  0  0  0  0  0  0
   18.7814   -0.5013    7.7837 H   0  0  0  0  0  0  0  0  0  0  0  0
   16.7777    0.8068    7.7247 H   0  0  0  0  0  0  0  0  0  0  0  0
   17.4004   -2.4302   13.1508 H   0  0  0  0  0  0  0  0  0  0  0  0
   17.6560   -5.7073   16.6464 H   0  0  0  0  0  0  0  0  0  0  0  0
   13.0841   -5.5042   15.4970 H   0  0  0  0  0  0  0  0  0  0  0  0
   21.1385   -2.7449   10.1340 H   0  0  0  0  0  0  0  0  0  0  0  0
   20.0719   -1.7858   11.1318 H   0  0  0  0  0  0  0  0  0  0  0  0
   20.6771   -1.1379    9.6262 H   0  0  0  0  0  0  0  0  0  0  0  0
   13.7019   -2.9960   10.1011 H   0  0  0  0  0  0  0  0  0  0  0  0
   13.4389   -1.4122    9.4027 H   0  0  0  0  0  0  0  0  0  0  0  0
   12.0170   -2.2105   13.4130 H   0  0  0  0  0  0  0  0  0  0  0  0
   13.0574   -3.2349   13.0115 H   0  0  0  0  0  0  0  0  0  0  0  0
   10.3668   -2.5751   11.4775 H   0  0  0  0  0  0  0  0  0  0  0  0
   11.1239   -3.6619   10.7439 H   0  0  0  0  0  0  0  0  0  0  0  0
   12.0682    0.0002   12.4286 H   0  0  0  0  0  0  0  0  0  0  0  0
   10.9434   -0.2416   11.1001 H   0  0  0  0  0  0  0  0  0  0  0  0
  1  2  2  0
  2  3  1  0
  2 34  1  0
  3  4  2  0
  3 35  1  0
  4  5  1  0
  5 25  1  0
  5  6  2  0
  6  7  1  0
  6  1  1  0
  7  8  2  0
  8  9  1  0
  8 36  1  0
  9 13  1  0
  9 10  2  0
 10 11  1  0
 11  7  1  0
 11 12  1  0
 13 15  1  0
 13 14  1  0
 15 16  2  0
 16 17  1  0
 16 37  1  0
 17 18  2  0
 18 21  1  0
 18 19  1  0
 19 20  2  0
 19 38  1  0
 20 15  1  0
 21 22  3  0
 23 24  1  0
 23 39  1  0
 23 40  1  0
 23 41  1  0
 24  1  1  0
 25 26  1  0
 26 27  1  0
 26 42  1  0
 26 43  1  0
 27 30  1  0
 27 28  1  0
 28 29  1  0
 28 44  1  0
 28 45  1  0
 29 27  1  0
 29 46  1  0
 29 47  1  0
 30 31  1  0
 30 48  1  0
 30 49  1  0
 31 32  1  0
 31 33  1  0
M  END
>  <minimizedAffinity>  (4) 
-7.16209

>  <mol_id>  (4) 
60774

>  <source_index>  (4) 
3

>  <layer>  (4) 
L2

>  <uniprot>  (4) 
O14757

>  <paff>  (4) 
9.4948999999999995

>  <smiles>  (4) 
COc1ccnc(OCC2(CN)CC2)c1-c1cc(Nc2cnc(C#N)cn2)n[nH]1

$$$$
L2:O14757:60923
     RDKit          3D

 44 47  0  0  0  0  0  0  0  0999 V2000
   13.3399   -2.2428   11.9463 C   0  0  0  0  0  0  0  0  0  0  0  0
   14.2433   -1.7170   11.0723 N   0  0  0  0  0  0  0  0  0  0  0  0
   13.9268   -0.6490   10.3093 C   0  0  0  0  0  0  0  0  0  0  0  0
   12.6585   -0.0918   10.4290 C   0  0  0  0  0  0  0  0  0  0  0  0
   11.7006   -0.5737   11.2507 N   0  0  0  0  0  0  0  0  0  0  0  0
   12.0667   -1.6552   12.0020 C   0  0  0  0  0  0  0  0  0  0  0  0
   18.0099   -6.7815   13.5647 C   0  0  0  0  0  0  0  0  0  0  0  0
   16.6505   -6.4063   13.9376 N   0  0  0  0  0  0  0  0  0  0  0  0
   16.6223   -5.0370   14.5081 C   0  0  0  0  0  0  0  0  0  0  0  0
   15.3545   -4.7701   13.6607 C   0  0  0  0  0  0  0  0  0  0  0  0
   13.9909   -5.0279   14.2940 C   0  0  0  0  0  0  0  0  0  0  0  0
   13.0241   -4.3877   13.2940 C   0  0  0  0  0  0  0  0  0  0  0  0
   13.7899   -3.3101   12.6806 N   0  0  0  0  0  0  0  0  0  0  0  0
   15.2191   -3.4055   12.9977 C   0  0  0  0  0  0  0  0  0  0  0  0
   15.9006   -5.9105   12.7558 C   0  0  0  0  0  0  0  0  0  0  0  0
   14.8580   -0.0688    9.4248 N   0  0  0  0  0  0  0  0  0  0  0  0
   14.4141    0.5310    8.7434 H   0  0  0  0  0  0  0  0  0  0  0  0
   16.1571   -0.3709    9.2568 C   0  0  0  0  0  0  0  0  0  0  0  0
   16.7102   -1.6001    9.5283 C   0  0  0  0  0  0  0  0  0  0  0  0
   18.0322   -1.4680    9.1962 N   0  0  0  0  0  0  0  0  0  0  0  0
   18.2204   -0.1971    8.7401 C   0  0  0  0  0  0  0  0  0  0  0  0
   17.0956    0.4804    8.7489 N   0  0  0  0  0  0  0  0  0  0  0  0
   19.0534   -2.4909    9.2544 C   0  0  0  0  0  0  0  0  0  0  0  0
   20.0372   -2.2594    8.3475 F   0  0  0  0  0  0  0  0  0  0  0  0
   19.6474   -2.5311   10.4755 F   0  0  0  0  0  0  0  0  0  0  0  0
   11.0037   -2.1501   12.8266 C   0  0  0  0  0  0  0  0  0  0  0  0
   10.1375   -2.5498   13.4930 N   0  0  0  0  0  0  0  0  0  0  0  0
   12.4361    0.7379    9.8570 H   0  0  0  0  0  0  0  0  0  0  0  0
   18.5320   -7.1353   14.4290 H   0  0  0  0  0  0  0  0  0  0  0  0
   18.5183   -5.9290   13.1650 H   0  0  0  0  0  0  0  0  0  0  0  0
   17.9765   -7.5554   12.8265 H   0  0  0  0  0  0  0  0  0  0  0  0
   17.4652   -4.4305   14.2502 H   0  0  0  0  0  0  0  0  0  0  0  0
   16.6332   -4.8715   15.5652 H   0  0  0  0  0  0  0  0  0  0  0  0
   13.9175   -4.5607   15.2538 H   0  0  0  0  0  0  0  0  0  0  0  0
   13.7944   -6.0653   14.4675 H   0  0  0  0  0  0  0  0  0  0  0  0
   12.1626   -4.0002   13.7966 H   0  0  0  0  0  0  0  0  0  0  0  0
   12.6625   -5.0902   12.5725 H   0  0  0  0  0  0  0  0  0  0  0  0
   15.5136   -2.6252   13.6680 H   0  0  0  0  0  0  0  0  0  0  0  0
   15.8422   -3.3017   12.1340 H   0  0  0  0  0  0  0  0  0  0  0  0
   16.5151   -5.5801   11.9445 H   0  0  0  0  0  0  0  0  0  0  0  0
   15.2459   -6.5474   12.1986 H   0  0  0  0  0  0  0  0  0  0  0  0
   16.2344   -2.4370    9.9001 H   0  0  0  0  0  0  0  0  0  0  0  0
   19.1280    0.1827    8.4287 H   0  0  0  0  0  0  0  0  0  0  0  0
   18.5565   -3.4154    9.0464 H   0  0  0  0  0  0  0  0  0  0  0  0
  1  2  2  0
  2  3  1  0
  3 16  1  0
  3  4  2  0
  4  5  1  0
  4 28  1  0
  5  6  2  0
  6 26  1  0
  6  1  1  0
  7  8  1  0
  7 29  1  0
  7 30  1  0
  7 31  1  0
  8  9  1  0
  9 10  1  0
  9 32  1  0
  9 33  1  0
 10 11  1  0
 10 15  1  0
 11 12  1  0
 11 34  1  0
 11 35  1  0
 12 13  1  0
 12 36  1  0
 12 37  1  0
 13  1  1  0
 13 14  1  0
 14 10  1  0
 14 38  1  0
 14 39  1  0
 15  8  1  0
 15 40  1  0
 15 41  1  0
 16 18  1  0
 16 17  1  0
 18 19  2  0
 19 20  1  0
 19 42  1  0
 20 23  1  0
 20 21  1  0
 21 22  2  0
 21 43  1  0
 22 18  1  0
 23 24  1  0
 23 25  1  0
 23 44  1  0
 26 27  3  0
M  END
>  <minimizedAffinity>  (5) 
-7.78914

>  <mol_id>  (5) 
60923

>  <source_index>  (5) 
4

>  <layer>  (5) 
L2

>  <uniprot>  (5) 
O14757

>  <paff>  (5) 
7.8539000000000003

>  <smiles>  (5) 
CN1CC2(CCN(c3nc(Nc4cn(C(F)F)cn4)cnc3C#N)C2)C1

$$$$
L2:O14757:64281
     RDKit          3D

 50 53  0  0  0  0  0  0  0  0999 V2000
   13.2401   -1.7415   11.6680 C   0  0  0  0  0  0  0  0  0  0  0  0
   14.5491   -2.1312   11.5532 C   0  0  0  0  0  0  0  0  0  0  0  0
   15.0453   -1.4800   10.4447 N   0  0  0  0  0  0  0  0  0  0  0  0
   13.9862   -0.7410    9.9572 C   0  0  0  0  0  0  0  0  0  0  0  0
   12.8910   -0.8841   10.6731 N   0  0  0  0  0  0  0  0  0  0  0  0
   16.3656   -1.5551    9.9149 C   0  0  0  0  0  0  0  0  0  0  0  0
   17.2346   -2.5815   10.2934 C   0  0  0  0  0  0  0  0  0  0  0  0
   18.5343   -2.6436    9.7647 C   0  0  0  0  0  0  0  0  0  0  0  0
   19.0178   -1.7007    8.8467 C   0  0  0  0  0  0  0  0  0  0  0  0
   18.1260   -0.6824    8.4822 C   0  0  0  0  0  0  0  0  0  0  0  0
   16.8238   -0.6024    9.0016 C   0  0  0  0  0  0  0  0  0  0  0  0
   20.2991   -1.7718    8.3313 N   0  0  0  0  0  0  0  0  0  0  0  0
   21.0928   -3.0085    8.3925 C   0  0  0  0  0  0  0  0  0  0  0  0
   22.6117   -2.7028    8.3878 C   0  0  0  0  0  0  0  0  0  0  0  0
   23.1087   -1.8681    7.2703 N   0  0  0  0  0  0  0  0  0  0  0  0
   22.0080   -1.0807    6.6697 C   0  0  0  0  0  0  0  0  0  0  0  0
   20.9380   -0.6150    7.6836 C   0  0  0  0  0  0  0  0  0  0  0  0
   23.8049   -2.6468    6.2333 C   0  0  0  0  0  0  0  0  0  0  0  0
   22.9166   -3.0220    5.0459 C   0  0  0  0  0  0  0  0  0  0  0  0
   22.4486   -4.2876    5.2364 F   0  0  0  0  0  0  0  0  0  0  0  0
   12.3138   -2.0905   12.5721 N   0  0  0  0  0  0  0  0  0  0  0  0
   12.4767   -2.9850   13.0168 H   0  0  0  0  0  0  0  0  0  0  0  0
    8.6313   -0.5313   13.5884 C   0  0  0  0  0  0  0  0  0  0  0  0
    9.6774    0.3032   13.2369 C   0  0  0  0  0  0  0  0  0  0  0  0
   10.9052   -0.1641   12.8910 N   0  0  0  0  0  0  0  0  0  0  0  0
   11.0765   -1.5083   12.8901 C   0  0  0  0  0  0  0  0  0  0  0  0
   10.0052   -2.3311   13.2628 C   0  0  0  0  0  0  0  0  0  0  0  0
    8.7713   -1.8774   13.6113 N   0  0  0  0  0  0  0  0  0  0  0  0
    6.3167    0.4126   14.2785 N   0  0  0  0  0  0  0  0  0  0  0  0
    7.3522    0.0023   13.9469 C   0  0  0  0  0  0  0  0  0  0  0  0
   15.0597   -2.7807   12.1716 H   0  0  0  0  0  0  0  0  0  0  0  0
   14.0467   -0.1401    9.1203 H   0  0  0  0  0  0  0  0  0  0  0  0
   16.9196   -3.2984   10.9656 H   0  0  0  0  0  0  0  0  0  0  0  0
   19.1561   -3.4114   10.0629 H   0  0  0  0  0  0  0  0  0  0  0  0
   18.4376    0.0341    7.8080 H   0  0  0  0  0  0  0  0  0  0  0  0
   16.2008    0.1656    8.7065 H   0  0  0  0  0  0  0  0  0  0  0  0
   20.8569   -3.6165    7.5442 H   0  0  0  0  0  0  0  0  0  0  0  0
   20.8536   -3.5189    9.3020 H   0  0  0  0  0  0  0  0  0  0  0  0
   23.1323   -3.6370    8.3537 H   0  0  0  0  0  0  0  0  0  0  0  0
   22.7905   -2.1300    9.2737 H   0  0  0  0  0  0  0  0  0  0  0  0
   21.5280   -1.6852    5.9287 H   0  0  0  0  0  0  0  0  0  0  0  0
   22.4496   -0.1965    6.2596 H   0  0  0  0  0  0  0  0  0  0  0  0
   20.1929   -0.0434    7.1707 H   0  0  0  0  0  0  0  0  0  0  0  0
   21.4115   -0.0175    8.4344 H   0  0  0  0  0  0  0  0  0  0  0  0
   24.1732   -3.5478    6.6777 H   0  0  0  0  0  0  0  0  0  0  0  0
   24.5908   -2.0284    5.8528 H   0  0  0  0  0  0  0  0  0  0  0  0
   23.4871   -2.9809    4.1416 H   0  0  0  0  0  0  0  0  0  0  0  0
   22.0982   -2.3369    4.9705 H   0  0  0  0  0  0  0  0  0  0  0  0
    9.5184    1.3229   13.2375 H   0  0  0  0  0  0  0  0  0  0  0  0
   10.1633   -3.3509   13.2736 H   0  0  0  0  0  0  0  0  0  0  0  0
  1  2  2  0
  2  3  1  0
  2 31  1  0
  3  6  1  0
  3  4  1  0
  4  5  2  0
  4 32  1  0
  5  1  1  0
  6  7  2  0
  7  8  1  0
  7 33  1  0
  8  9  2  0
  8 34  1  0
  9 12  1  0
  9 10  1  0
 10 11  2  0
 10 35  1  0
 11  6  1  0
 11 36  1  0
 12 13  1  0
 13 14  1  0
 13 37  1  0
 13 38  1  0
 14 15  1  0
 14 39  1  0
 14 40  1  0
 15 18  1  0
 15 16  1  0
 16 17  1  0
 16 41  1  0
 16 42  1  0
 17 12  1  0
 17 43  1  0
 17 44  1  0
 18 19  1  0
 18 45  1  0
 18 46  1  0
 19 20  1  0
 19 47  1  0
 19 48  1  0
 21  1  1  0
 21 22  1  0
 23 24  2  0
 24 25  1  0
 24 49  1  0
 25 26  2  0
 26 21  1  0
 26 27  1  0
 27 28  2  0
 27 50  1  0
 28 23  1  0
 29 30  3  0
 30 23  1  0
M  END
>  <minimizedAffinity>  (6) 
-7.27905

>  <mol_id>  (6) 
64281

>  <source_index>  (6) 
5

>  <layer>  (6) 
L2

>  <uniprot>  (6) 
O14757

>  <paff>  (6) 
7.3978999999999999

>  <smiles>  (6) 
N#Cc1cnc(Nc2cn(-c3ccc(N4CCN(CCF)CC4)cc3)cn2)cn1

$$$$
L2:O14757:72416
     RDKit          3D

 52 55  0  0  0  0  0  0  0  0999 V2000
   11.7597   -3.3711   13.6428 N   0  0  0  0  0  0  0  0  0  0  0  0
   12.7674   -2.9744   12.7961 C   0  0  0  0  0  0  0  0  0  0  0  0
   12.4722   -1.9261   11.9976 N   0  0  0  0  0  0  0  0  0  0  0  0
   13.4707   -1.4748   11.1887 C   0  0  0  0  0  0  0  0  0  0  0  0
   14.7504   -2.0242   11.1486 C   0  0  0  0  0  0  0  0  0  0  0  0
   15.0563   -3.0812   11.9507 N   0  0  0  0  0  0  0  0  0  0  0  0
   14.0507   -3.5358   12.7642 C   0  0  0  0  0  0  0  0  0  0  0  0
   10.8713   -2.9016   13.5618 H   0  0  0  0  0  0  0  0  0  0  0  0
   11.8393   -4.2681   14.1157 H   0  0  0  0  0  0  0  0  0  0  0  0
   15.8035   -1.4982   10.2556 C   0  0  0  0  0  0  0  0  0  0  0  0
   15.4607   -0.5595    9.3489 N   0  0  0  0  0  0  0  0  0  0  0  0
   16.4393   -0.1027    8.5506 C   0  0  0  0  0  0  0  0  0  0  0  0
   17.7401   -0.5373    8.6207 C   0  0  0  0  0  0  0  0  0  0  0  0
   18.0046   -1.4948    9.5768 C   0  0  0  0  0  0  0  0  0  0  0  0
   17.0523   -1.9869   10.3981 N   0  0  0  0  0  0  0  0  0  0  0  0
   19.3306   -2.0551    9.7733 C   0  0  0  0  0  0  0  0  0  0  0  0
   20.2275   -2.5893    8.8190 C   0  0  0  0  0  0  0  0  0  0  0  0
   21.3648   -3.0280    9.3651 N   0  0  0  0  0  0  0  0  0  0  0  0
   21.2144   -2.7587   10.6725 N   0  0  0  0  0  0  0  0  0  0  0  0
   19.9997   -2.2038   10.9728 C   0  0  0  0  0  0  0  0  0  0  0  0
   22.2493   -3.1489   11.6027 C   0  0  0  0  0  0  0  0  0  0  0  0
   22.1072   -4.5847   12.0239 C   0  0  0  0  0  0  0  0  0  0  0  0
   22.7694   -4.7929   13.1889 F   0  0  0  0  0  0  0  0  0  0  0  0
   22.6493   -5.4272   11.1135 F   0  0  0  0  0  0  0  0  0  0  0  0
   20.8260   -4.9535   12.2221 F   0  0  0  0  0  0  0  0  0  0  0  0
   14.4140   -4.7169   13.6147 C   0  0  0  0  0  0  0  0  0  0  0  0
   13.5732   -5.4787   14.0802 O   0  0  0  0  0  0  0  0  0  0  0  0
   15.7743   -4.8744   13.7994 N   0  0  0  0  0  0  0  0  0  0  0  0
   16.3711   -4.2068   13.3133 H   0  0  0  0  0  0  0  0  0  0  0  0
   16.3538   -5.9741   14.5535 C   0  0  1  0  0  0  0  0  0  0  0  0
   17.5140   -6.6130   13.7731 C   0  0  0  0  0  0  0  0  0  0  0  0
   18.5721   -7.2307   14.6887 C   0  0  0  0  0  0  0  0  0  0  0  0
   17.9758   -7.6863   16.0155 C   0  0  0  0  0  0  0  0  0  0  0  0
   17.3754   -6.5939   16.7817 N   0  0  0  0  0  0  0  0  0  0  0  0
   16.8254   -5.5178   15.9474 C   0  0  0  0  0  0  0  0  0  0  0  0
   18.0594   -6.1982   17.4258 H   0  0  0  0  0  0  0  0  0  0  0  0
   13.2668   -0.6766   10.5671 H   0  0  0  0  0  0  0  0  0  0  0  0
   16.2010    0.6134    7.8467 H   0  0  0  0  0  0  0  0  0  0  0  0
   18.4747   -0.1697    7.9960 H   0  0  0  0  0  0  0  0  0  0  0  0
   20.0248   -2.6352    7.8082 H   0  0  0  0  0  0  0  0  0  0  0  0
   19.6523   -1.9472   11.9101 H   0  0  0  0  0  0  0  0  0  0  0  0
   22.1885   -2.5256   12.4703 H   0  0  0  0  0  0  0  0  0  0  0  0
   23.1951   -3.0369   11.1150 H   0  0  0  0  0  0  0  0  0  0  0  0
   15.5893   -6.7094   14.6938 H   0  0  0  0  0  0  0  0  0  0  0  0
   17.9789   -5.8591   13.1727 H   0  0  0  0  0  0  0  0  0  0  0  0
   17.1058   -7.4001   13.1741 H   0  0  0  0  0  0  0  0  0  0  0  0
   19.3310   -6.5017   14.8821 H   0  0  0  0  0  0  0  0  0  0  0  0
   18.9796   -8.0882   14.1951 H   0  0  0  0  0  0  0  0  0  0  0  0
   18.7527   -8.1278   16.6040 H   0  0  0  0  0  0  0  0  0  0  0  0
   17.1962   -8.3841   15.7914 H   0  0  0  0  0  0  0  0  0  0  0  0
   17.5833   -4.7737   15.8177 H   0  0  0  0  0  0  0  0  0  0  0  0
   15.9609   -5.1466   16.4570 H   0  0  0  0  0  0  0  0  0  0  0  0
  1  2  1  0
  1  8  1  0
  1  9  1  0
  2  3  2  0
  3  4  1  0
  4  5  2  0
  4 37  1  0
  5 10  1  0
  5  6  1  0
  6  7  2  0
  7 26  1  0
  7  2  1  0
 10 11  2  0
 11 12  1  0
 12 13  2  0
 12 38  1  0
 13 14  1  0
 13 39  1  0
 14 16  1  0
 14 15  2  0
 15 10  1  0
 16 17  1  0
 17 18  2  0
 17 40  1  0
 18 19  1  0
 19 21  1  0
 19 20  1  0
 20 16  2  0
 20 41  1  0
 21 22  1  0
 21 42  1  0
 21 43  1  0
 22 23  1  0
 22 24  1  0
 22 25  1  0
 26 27  2  0
 26 28  1  0
 28 30  1  0
 28 29  1  0
 30 31  1  0
 30 44  1  1
 31 32  1  0
 31 45  1  0
 31 46  1  0
 32 33  1  0
 32 47  1  0
 32 48  1  0
 33 34  1  0
 33 49  1  0
 33 50  1  0
 34 35  1  0
 34 36  1  0
 35 30  1  0
 35 51  1  0
 35 52  1  0
M  END
>  <minimizedAffinity>  (7) 
-7.96093

>  <mol_id>  (7) 
72416

>  <source_index>  (7) 
6

>  <layer>  (7) 
L2

>  <uniprot>  (7) 
O14757

>  <paff>  (7) 
6.2595999999999998

>  <smiles>  (7) 
Nc3ncc(c2nccc(c1cnn(CC(F)(F)F)c1)n2)nc3C(=O)N[C@H]4CCCNC4

$$$$
L2:O14757:111705
     RDKit          3D

 50 53  0  0  0  0  0  0  0  0999 V2000
   14.3991   -5.3029   14.6373 N   0  0  0  0  0  0  0  0  0  0  0  0
   14.6978   -5.2871   15.9847 C   0  0  0  0  0  0  0  0  0  0  0  0
   14.0429   -6.2048   16.6603 N   0  0  0  0  0  0  0  0  0  0  0  0
   13.2802   -6.8472   15.7364 C   0  0  0  0  0  0  0  0  0  0  0  0
   13.4528   -6.2974   14.4918 C   0  0  0  0  0  0  0  0  0  0  0  0
   12.6762   -3.2579   13.1320 C   0  0  0  0  0  0  0  0  0  0  0  0
   14.1624   -3.4460   12.9829 C   0  0  0  0  0  0  0  0  0  0  0  0
   14.8133   -2.5822   12.0668 C   0  0  0  0  0  0  0  0  0  0  0  0
   16.1737   -2.6865   11.7402 C   0  0  0  0  0  0  0  0  0  0  0  0
   16.8903   -3.6946   12.3888 C   0  0  0  0  0  0  0  0  0  0  0  0
   16.2871   -4.5521   13.3173 C   0  0  0  0  0  0  0  0  0  0  0  0
   14.9267   -4.4273   13.6420 C   0  0  0  0  0  0  0  0  0  0  0  0
   16.7977   -1.8320   10.8382 N   0  0  0  0  0  0  0  0  0  0  0  0
   18.2006   -1.4496   11.0916 C   0  0  0  0  0  0  0  0  0  0  0  0
   18.5944   -0.1723   10.3120 C   0  0  0  0  0  0  0  0  0  0  0  0
   18.2668   -0.1700    8.8707 N   0  0  0  0  0  0  0  0  0  0  0  0
   19.1248   -1.0834    8.1201 C   0  0  0  0  0  0  0  0  0  0  0  0
   16.8367   -0.5115    8.7176 C   0  0  0  0  0  0  0  0  0  0  0  0
   16.3775   -1.8071    9.4268 C   0  0  0  0  0  0  0  0  0  0  0  0
   12.4680   -7.8247   16.1572 N   0  0  0  0  0  0  0  0  0  0  0  0
   12.9038   -8.7317   16.2956 H   0  0  0  0  0  0  0  0  0  0  0  0
   11.1222   -7.9245   16.4867 C   0  0  0  0  0  0  0  0  0  0  0  0
   10.0905   -8.2051   15.5919 C   0  0  0  0  0  0  0  0  0  0  0  0
    8.7764   -8.2947   15.9409 N   0  0  0  0  0  0  0  0  0  0  0  0
    8.5154   -8.0969   17.2539 C   0  0  0  0  0  0  0  0  0  0  0  0
    9.5239   -7.8300   18.1610 C   0  0  0  0  0  0  0  0  0  0  0  0
   10.8303   -7.7434   17.7982 N   0  0  0  0  0  0  0  0  0  0  0  0
    7.1488   -8.1796   17.6718 C   0  0  0  0  0  0  0  0  0  0  0  0
    6.0324   -8.2763   17.9796 N   0  0  0  0  0  0  0  0  0  0  0  0
   15.3634   -4.6262   16.4151 H   0  0  0  0  0  0  0  0  0  0  0  0
   12.9717   -6.5721   13.6211 H   0  0  0  0  0  0  0  0  0  0  0  0
   12.3567   -2.4415   12.5186 H   0  0  0  0  0  0  0  0  0  0  0  0
   12.4442   -3.0474   14.1551 H   0  0  0  0  0  0  0  0  0  0  0  0
   12.1714   -4.1511   12.8283 H   0  0  0  0  0  0  0  0  0  0  0  0
   14.2577   -1.8380   11.6167 H   0  0  0  0  0  0  0  0  0  0  0  0
   17.8937   -3.8110   12.1777 H   0  0  0  0  0  0  0  0  0  0  0  0
   16.8516   -5.2877   13.7703 H   0  0  0  0  0  0  0  0  0  0  0  0
   18.8393   -2.2524   10.7875 H   0  0  0  0  0  0  0  0  0  0  0  0
   18.3085   -1.2493   12.1371 H   0  0  0  0  0  0  0  0  0  0  0  0
   19.6521   -0.0423   10.4082 H   0  0  0  0  0  0  0  0  0  0  0  0
   18.0170    0.6193   10.7419 H   0  0  0  0  0  0  0  0  0  0  0  0
   20.1486   -0.8038    8.2561 H   0  0  0  0  0  0  0  0  0  0  0  0
   18.8764   -1.0329    7.0806 H   0  0  0  0  0  0  0  0  0  0  0  0
   18.9779   -2.0825    8.4738 H   0  0  0  0  0  0  0  0  0  0  0  0
   16.6344   -0.6193    7.6724 H   0  0  0  0  0  0  0  0  0  0  0  0
   16.2949    0.2845    9.1843 H   0  0  0  0  0  0  0  0  0  0  0  0
   16.8046   -2.6487    8.9227 H   0  0  0  0  0  0  0  0  0  0  0  0
   15.3086   -1.8443    9.3956 H   0  0  0  0  0  0  0  0  0  0  0  0
   10.3381   -8.3546   14.6013 H   0  0  0  0  0  0  0  0  0  0  0  0
    9.2746   -7.6911   19.1528 H   0  0  0  0  0  0  0  0  0  0  0  0
  1  2  1  0
  2  3  2  0
  2 30  1  0
  3  4  1  0
  4 20  1  0
  4  5  2  0
  5  1  1  0
  5 31  1  0
  6  7  1  0
  6 32  1  0
  6 33  1  0
  6 34  1  0
  7  8  2  0
  8  9  1  0
  8 35  1  0
  9 13  1  0
  9 10  2  0
 10 11  1  0
 10 36  1  0
 11 12  2  0
 11 37  1  0
 12  1  1  0
 12  7  1  0
 13 14  1  0
 14 15  1  0
 14 38  1  0
 14 39  1  0
 15 16  1  0
 15 40  1  0
 15 41  1  0
 16 17  1  0
 16 18  1  0
 17 42  1  0
 17 43  1  0
 17 44  1  0
 18 19  1  0
 18 45  1  0
 18 46  1  0
 19 13  1  0
 19 47  1  0
 19 48  1  0
 20 22  1  0
 20 21  1  0
 22 23  2  0
 23 24  1  0
 23 49  1  0
 24 25  2  0
 25 28  1  0
 25 26  1  0
 26 27  2  0
 26 50  1  0
 27 22  1  0
 28 29  3  0
M  END
>  <minimizedAffinity>  (8) 
-7.55830

>  <mol_id>  (8) 
111705

>  <source_index>  (8) 
7

>  <layer>  (8) 
L2

>  <uniprot>  (8) 
O14757

>  <paff>  (8) 
6.3334999999999999

>  <smiles>  (8) 
Cc1cc(N2CCN(C)CC2)ccc1-n1cnc(Nc2cnc(C#N)cn2)c1

$$$$
L2:O14757:124280
     RDKit          3D

 47 51  0  0  0  0  0  0  0  0999 V2000
   16.1150   -2.2855   11.7001 C   0  0  0  0  0  0  0  0  0  0  0  0
   15.1199   -1.6700   10.9007 C   0  0  0  0  0  0  0  0  0  0  0  0
   15.4815   -1.2618    9.6279 C   0  0  0  0  0  0  0  0  0  0  0  0
   16.7120   -1.4242    9.1016 N   0  0  0  0  0  0  0  0  0  0  0  0
   17.6441   -2.0100    9.8680 C   0  0  0  0  0  0  0  0  0  0  0  0
   18.9092   -2.1798    9.3281 C   0  0  0  0  0  0  0  0  0  0  0  0
   19.9281   -2.7854   10.0532 C   0  0  0  0  0  0  0  0  0  0  0  0
   19.6359   -3.2101   11.3282 C   0  0  0  0  0  0  0  0  0  0  0  0
   18.4217   -3.0626   11.8966 N   0  0  0  0  0  0  0  0  0  0  0  0
   17.4215   -2.4682   11.1854 C   0  0  0  0  0  0  0  0  0  0  0  0
   15.4612   -3.7526   15.0503 C   0  0  0  0  0  0  0  0  0  0  0  0
   15.9983   -3.9219   13.7502 C   0  0  0  0  0  0  0  0  0  0  0  0
   15.7927   -2.7303   13.0781 C   0  0  0  0  0  0  0  0  0  0  0  0
   15.1598   -1.9446   14.0060 N   0  0  0  0  0  0  0  0  0  0  0  0
   14.9837   -2.5178   15.2019 N   0  0  0  0  0  0  0  0  0  0  0  0
   14.8548   -0.9859   13.8826 H   0  0  0  0  0  0  0  0  0  0  0  0
   15.5158   -4.7402   15.9706 N   0  0  0  0  0  0  0  0  0  0  0  0
   16.4137   -4.9637   16.3762 H   0  0  0  0  0  0  0  0  0  0  0  0
   12.6113   -7.5604   16.7711 C   0  0  0  0  0  0  0  0  0  0  0  0
   13.3383   -6.9885   17.7995 C   0  0  0  0  0  0  0  0  0  0  0  0
   14.2928   -6.0491   17.5844 N   0  0  0  0  0  0  0  0  0  0  0  0
   14.5270   -5.6842   16.3031 C   0  0  0  0  0  0  0  0  0  0  0  0
   13.7828   -6.2837   15.2789 C   0  0  0  0  0  0  0  0  0  0  0  0
   12.8124   -7.2161   15.4765 N   0  0  0  0  0  0  0  0  0  0  0  0
   10.8205   -9.3741   17.2502 N   0  0  0  0  0  0  0  0  0  0  0  0
   11.6075   -8.5455   17.0386 C   0  0  0  0  0  0  0  0  0  0  0  0
   13.8691   -1.5335   11.4432 O   0  0  0  0  0  0  0  0  0  0  0  0
   12.7054   -1.9189   10.6979 C   0  0  0  0  0  0  0  0  0  0  0  0
   11.7377   -2.7265   11.5604 C   0  0  0  0  0  0  0  0  0  0  0  0
   10.8904   -3.4291   10.7676 F   0  0  0  0  0  0  0  0  0  0  0  0
   11.0850   -1.9594   12.7338 C   0  0  0  0  0  0  0  0  0  0  0  0
   12.0993   -2.5085   13.6567 N   0  0  0  0  0  0  0  0  0  0  0  0
   12.4269   -3.5549   12.6702 C   0  0  0  0  0  0  0  0  0  0  0  0
   12.8632   -1.8632   13.8625 H   0  0  0  0  0  0  0  0  0  0  0  0
   14.7633   -0.8041    9.0450 H   0  0  0  0  0  0  0  0  0  0  0  0
   19.0982   -1.8500    8.3687 H   0  0  0  0  0  0  0  0  0  0  0  0
   20.8695   -2.9119    9.6498 H   0  0  0  0  0  0  0  0  0  0  0  0
   20.3826   -3.6641   11.8772 H   0  0  0  0  0  0  0  0  0  0  0  0
   16.4542   -4.7693   13.3772 H   0  0  0  0  0  0  0  0  0  0  0  0
   13.1470   -7.2882   18.7683 H   0  0  0  0  0  0  0  0  0  0  0  0
   13.9846   -5.9984   14.3079 H   0  0  0  0  0  0  0  0  0  0  0  0
   13.0080   -2.5146    9.8621 H   0  0  0  0  0  0  0  0  0  0  0  0
   12.2055   -1.0319   10.3687 H   0  0  0  0  0  0  0  0  0  0  0  0
   10.0835   -2.2659   12.9528 H   0  0  0  0  0  0  0  0  0  0  0  0
   10.9269   -0.9031   12.6691 H   0  0  0  0  0  0  0  0  0  0  0  0
   11.9611   -4.4986   12.8637 H   0  0  0  0  0  0  0  0  0  0  0  0
   13.4367   -3.8873   12.5491 H   0  0  0  0  0  0  0  0  0  0  0  0
  1  2  1  0
  2 27  1  0
  2  3  2  0
  3  4  1  0
  3 35  1  0
  4  5  2  0
  5  6  1  0
  6  7  2  0
  6 36  1  0
  7  8  1  0
  7 37  1  0
  8  9  2  0
  8 38  1  0
  9 10  1  0
 10  1  2  0
 10  5  1  0
 11 12  1  0
 12 13  2  0
 12 39  1  0
 13  1  1  0
 13 14  1  0
 14 15  1  0
 14 16  1  0
 15 11  2  0
 17 11  1  0
 17 18  1  0
 19 20  2  0
 20 21  1  0
 20 40  1  0
 21 22  2  0
 22 17  1  0
 22 23  1  0
 23 24  2  0
 23 41  1  0
 24 19  1  0
 25 26  3  0
 26 19  1  0
 27 28  1  0
 28 29  1  0
 28 42  1  0
 28 43  1  0
 29 30  1  0
 29 31  1  0
 31 32  1  0
 31 44  1  0
 31 45  1  0
 32 33  1  0
 32 34  1  0
 33 29  1  0
 33 46  1  0
 33 47  1  0
M  END
>  <minimizedAffinity>  (9) 
-8.31980

>  <mol_id>  (9) 
124280

>  <source_index>  (9) 
8

>  <layer>  (9) 
L2

>  <uniprot>  (9) 
O14757

>  <paff>  (9) 
9.2218

>  <smiles>  (9) 
N#Cc1cnc(Nc2cc(-c3c(OCC4(F)CNC4)cnc4cccnc34)[nH]n2)cn1

$$$$
L2:O14757:126650
     RDKit          3D

 44 47  0  0  0  0  0  0  0  0999 V2000
   13.7756   -5.6740   13.8607 C   0  0  0  0  0  0  0  0  0  0  0  0
   14.9639   -6.3417   13.8500 N   0  0  0  0  0  0  0  0  0  0  0  0
   16.0935   -5.6092   13.7053 C   0  0  0  0  0  0  0  0  0  0  0  0
   16.1241   -4.2296   13.5690 C   0  0  0  0  0  0  0  0  0  0  0  0
   14.8741   -3.5911   13.5855 C   0  0  0  0  0  0  0  0  0  0  0  0
   13.6522   -4.2841   13.7201 C   0  0  0  0  0  0  0  0  0  0  0  0
   11.7362   -7.2689   14.1174 N   0  0  0  0  0  0  0  0  0  0  0  0
   12.6534   -6.5621   13.9990 C   0  0  0  0  0  0  0  0  0  0  0  0
   17.2800   -3.4608   13.4251 N   0  0  0  0  0  0  0  0  0  0  0  0
   17.7084   -3.0957   14.2634 H   0  0  0  0  0  0  0  0  0  0  0  0
   18.0228   -3.0566   12.3213 C   0  0  0  0  0  0  0  0  0  0  0  0
   19.0724   -3.8433   12.0217 N   0  0  0  0  0  0  0  0  0  0  0  0
   19.8240   -3.4962   10.9555 C   0  0  0  0  0  0  0  0  0  0  0  0
   19.5585   -2.3992   10.1737 C   0  0  0  0  0  0  0  0  0  0  0  0
   18.4727   -1.6418   10.5598 C   0  0  0  0  0  0  0  0  0  0  0  0
   17.7034   -1.9543   11.6240 N   0  0  0  0  0  0  0  0  0  0  0  0
   18.1995   -0.3516    9.8387 C   0  0  0  0  0  0  0  0  0  0  0  0
   18.6074   -0.4428    8.3762 C   0  0  0  0  0  0  0  0  0  0  0  0
   19.9898   -1.0374    8.2021 C   0  0  0  0  0  0  0  0  0  0  0  0
   20.7351   -0.7189    7.2800 O   0  0  0  0  0  0  0  0  0  0  0  0
   20.3372   -2.0400    9.0710 N   0  0  0  0  0  0  0  0  0  0  0  0
   21.2068   -2.5192    8.8693 H   0  0  0  0  0  0  0  0  0  0  0  0
   12.5099   -3.5065   13.7605 N   0  0  0  0  0  0  0  0  0  0  0  0
   12.4433   -2.8072   14.4998 H   0  0  0  0  0  0  0  0  0  0  0  0
   11.4709   -3.3392   12.7431 C   0  0  2  0  0  0  0  0  0  0  0  0
   12.0375   -2.6179   11.5240 C   0  0  0  0  0  0  0  0  0  0  0  0
   11.7834   -1.1317   11.7774 C   0  0  0  0  0  0  0  0  0  0  0  0
   11.0970   -1.0354   13.0698 N   0  0  0  0  0  0  0  0  0  0  0  0
   10.4238   -2.3295   13.2407 C   0  0  0  0  0  0  0  0  0  0  0  0
   10.4189   -0.2743   13.0604 H   0  0  0  0  0  0  0  0  0  0  0  0
   16.9943   -6.1127   13.6958 H   0  0  0  0  0  0  0  0  0  0  0  0
   14.8474   -2.5635   13.4946 H   0  0  0  0  0  0  0  0  0  0  0  0
   20.6378   -4.0840   10.7164 H   0  0  0  0  0  0  0  0  0  0  0  0
   18.7538    0.4345   10.3074 H   0  0  0  0  0  0  0  0  0  0  0  0
   17.1493   -0.1523    9.8861 H   0  0  0  0  0  0  0  0  0  0  0  0
   18.6000    0.5407    7.9547 H   0  0  0  0  0  0  0  0  0  0  0  0
   17.9095   -1.0849    7.8807 H   0  0  0  0  0  0  0  0  0  0  0  0
   11.0863   -4.3151   12.5320 H   0  0  0  0  0  0  0  0  0  0  0  0
   11.5366   -2.9369   10.6339 H   0  0  0  0  0  0  0  0  0  0  0  0
   13.0780   -2.8260   11.3864 H   0  0  0  0  0  0  0  0  0  0  0  0
   11.1681   -0.7254   11.0020 H   0  0  0  0  0  0  0  0  0  0  0  0
   12.7006   -0.5808   11.7870 H   0  0  0  0  0  0  0  0  0  0  0  0
    9.5325   -2.3791   12.6508 H   0  0  0  0  0  0  0  0  0  0  0  0
   10.1123   -2.5104   14.2483 H   0  0  0  0  0  0  0  0  0  0  0  0
  1  2  2  0
  2  3  1  0
  3  4  2  0
  3 31  1  0
  4  9  1  0
  4  5  1  0
  5  6  2  0
  5 32  1  0
  6 23  1  0
  6  1  1  0
  7  8  3  0
  8  1  1  0
  9 11  1  0
  9 10  1  0
 11 12  2  0
 12 13  1  0
 13 14  2  0
 13 33  1  0
 14 15  1  0
 15 16  2  0
 15 17  1  0
 16 11  1  0
 17 18  1  0
 17 34  1  0
 17 35  1  0
 18 19  1  0
 18 36  1  0
 18 37  1  0
 19 20  2  0
 19 21  1  0
 21 14  1  0
 21 22  1  0
 23 25  1  0
 23 24  1  0
 25 26  1  0
 25 38  1  6
 26 27  1  0
 26 39  1  0
 26 40  1  0
 27 28  1  0
 27 41  1  0
 27 42  1  0
 28 29  1  0
 28 30  1  0
 29 25  1  0
 29 43  1  0
 29 44  1  0
M  END
>  <minimizedAffinity>  (10) 
-7.93164

>  <mol_id>  (10) 
126650

>  <source_index>  (10) 
9

>  <layer>  (10) 
L2

>  <uniprot>  (10) 
O14757

>  <paff>  (10) 
7.3768000000000002

>  <smiles>  (10) 
N#Cc1ncc(Nc2ncc3c(n2)CCC(=O)N3)cc1N[C@@H]1CCNC1

$$$$
