L4:Q08211:11473
     RDKit          3D

 52 54  0  0  0  0  0  0  0  0999 V2000
   17.2377   11.4005  -62.1593 C   0  0  0  0  0  0  0  0  0  0  0  0
   17.0954   10.2713  -62.6144 O   0  0  0  0  0  0  0  0  0  0  0  0
   17.9248   12.4301  -62.7792 N   0  0  0  0  0  0  0  0  0  0  0  0
   17.9156   13.3237  -62.3087 H   0  0  0  0  0  0  0  0  0  0  0  0
   18.6121   12.3876  -64.0121 C   0  0  0  0  0  0  0  0  0  0  0  0
   19.2587   11.1905  -64.3406 C   0  0  0  0  0  0  0  0  0  0  0  0
   19.9644   11.0769  -65.5399 C   0  0  0  0  0  0  0  0  0  0  0  0
   20.7517    9.5946  -65.9212 Cl  0  0  0  0  0  0  0  0  0  0  0  0
   20.0363   12.1464  -66.4256 C   0  0  0  0  0  0  0  0  0  0  0  0
   19.3891   13.3368  -66.1082 C   0  0  0  0  0  0  0  0  0  0  0  0
   18.6782   13.4577  -64.9091 C   0  0  0  0  0  0  0  0  0  0  0  0
   19.4491   14.4575  -66.9866 N   0  0  0  0  0  0  0  0  0  0  0  0
   20.2960   14.5666  -67.5463 H   0  0  0  0  0  0  0  0  0  0  0  0
   18.0661   14.9141  -67.8379 S   0  0  0  0  0  0  0  0  0  0  0  0
   17.8435   13.5470  -68.9601 C   0  0  0  0  0  0  0  0  0  0  0  0
   16.9341   14.9622  -66.9397 O   0  0  0  0  0  0  0  0  0  0  0  0
   18.4512   16.0645  -68.6272 O   0  0  0  0  0  0  0  0  0  0  0  0
   15.7325   12.7487  -59.1264 N   0  0  0  0  0  0  0  0  0  0  0  0
   16.1801   12.9699  -60.4028 C   0  0  0  0  0  0  0  0  0  0  0  0
   16.6478   11.7548  -60.8733 C   0  0  0  0  0  0  0  0  0  0  0  0
   16.4309   10.8734  -59.7873 C   0  0  0  0  0  0  0  0  0  0  0  0
   15.8743   11.4717  -58.7326 N   0  0  0  0  0  0  0  0  0  0  0  0
   13.5306   14.3994  -55.5803 C   0  0  0  0  0  0  0  0  0  0  0  0
   15.0396   14.5942  -55.8191 C   0  0  0  0  0  0  0  0  0  0  0  0
   15.7500   14.4665  -54.4572 C   0  0  0  0  0  0  0  0  0  0  0  0
   15.6049   13.5238  -56.7755 C   0  0  0  0  0  0  0  0  0  0  0  0
   15.1506   13.7395  -58.2253 C   0  0  1  0  0  0  0  0  0  0  0  0
   15.4599   15.1687  -58.6777 C   0  0  0  0  0  0  0  0  0  0  0  0
   14.8655   16.1767  -57.7037 C   0  0  0  0  0  0  0  0  0  0  0  0
   15.3127   15.9491  -56.3302 N   0  0  0  0  0  0  0  0  0  0  0  0
   16.3183   16.1290  -56.2820 H   0  0  0  0  0  0  0  0  0  0  0  0
   19.2136   10.3880  -63.6933 H   0  0  0  0  0  0  0  0  0  0  0  0
   20.5636   12.0584  -67.3083 H   0  0  0  0  0  0  0  0  0  0  0  0
   18.1989   14.3438  -64.6852 H   0  0  0  0  0  0  0  0  0  0  0  0
   17.5572   12.6759  -68.4087 H   0  0  0  0  0  0  0  0  0  0  0  0
   18.7610   13.3565  -69.4766 H   0  0  0  0  0  0  0  0  0  0  0  0
   17.0787   13.7880  -69.6686 H   0  0  0  0  0  0  0  0  0  0  0  0
   16.1704   13.8668  -60.9133 H   0  0  0  0  0  0  0  0  0  0  0  0
   16.6777    9.8716  -59.8090 H   0  0  0  0  0  0  0  0  0  0  0  0
   13.3527   13.4114  -55.2100 H   0  0  0  0  0  0  0  0  0  0  0  0
   13.0033   14.5354  -56.5013 H   0  0  0  0  0  0  0  0  0  0  0  0
   13.1875   15.1161  -54.8637 H   0  0  0  0  0  0  0  0  0  0  0  0
   15.5738   13.4915  -54.0531 H   0  0  0  0  0  0  0  0  0  0  0  0
   15.3676   15.2058  -53.7848 H   0  0  0  0  0  0  0  0  0  0  0  0
   16.8017   14.6136  -54.5883 H   0  0  0  0  0  0  0  0  0  0  0  0
   15.2710   12.5608  -56.4500 H   0  0  0  0  0  0  0  0  0  0  0  0
   16.6722   13.5957  -56.7529 H   0  0  0  0  0  0  0  0  0  0  0  0
   14.0899   13.6039  -58.2633 H   0  0  0  0  0  0  0  0  0  0  0  0
   15.0413   15.3289  -59.6493 H   0  0  0  0  0  0  0  0  0  0  0  0
   16.5214   15.3003  -58.7071 H   0  0  0  0  0  0  0  0  0  0  0  0
   13.7988   16.0990  -57.7359 H   0  0  0  0  0  0  0  0  0  0  0  0
   15.1946   17.1512  -57.9986 H   0  0  0  0  0  0  0  0  0  0  0  0
  1  2  2  0
  1  3  1  0
  3  5  1  0
  3  4  1  0
  5  6  2  0
  6  7  1  0
  6 32  1  0
  7  8  1  0
  7  9  2  0
  9 10  1  0
  9 33  1  0
 10 12  1  0
 10 11  2  0
 11  5  1  0
 11 34  1  0
 12 14  1  0
 12 13  1  0
 14 15  1  0
 14 16  2  0
 14 17  2  0
 15 35  1  0
 15 36  1  0
 15 37  1  0
 18 19  1  0
 19 20  2  0
 19 38  1  0
 20 21  1  0
 20  1  1  0
 21 22  2  0
 21 39  1  0
 22 18  1  0
 23 24  1  0
 23 40  1  0
 23 41  1  0
 23 42  1  0
 24 25  1  0
 24 26  1  0
 25 43  1  0
 25 44  1  0
 25 45  1  0
 26 27  1  0
 26 46  1  0
 26 47  1  0
 27 28  1  0
 27 18  1  0
 27 48  1  1
 28 29  1  0
 28 49  1  0
 28 50  1  0
 29 30  1  0
 29 51  1  0
 29 52  1  0
 30 24  1  0
 30 31  1  0
M  END
>  <minimizedAffinity>  (1) 
-8.50447

>  <mol_id>  (1) 
11473

>  <source_index>  (1) 
0

>  <layer>  (1) 
L4

>  <uniprot>  (1) 
Q08211

>  <paff>  (1) 
7.1231999999999998

>  <smiles>  (1) 
CC1(C)CC(CCN1)n1cc(cn1)C(=O)Nc1cc(Cl)cc(NS(C)(=O)=O)c1

$$$$
L4:Q08211:21889
     RDKit          3D

 55 58  0  0  0  0  0  0  0  0999 V2000
   16.4316   12.3744  -60.7069 C   0  0  0  0  0  0  0  0  0  0  0  0
   15.9306   11.6284  -59.6245 C   0  0  0  0  0  0  0  0  0  0  0  0
   15.0284   12.2917  -58.9037 N   0  0  0  0  0  0  0  0  0  0  0  0
   14.9226   13.5119  -59.5017 N   0  0  0  0  0  0  0  0  0  0  0  0
   15.7544   13.5766  -60.6065 C   0  0  0  0  0  0  0  0  0  0  0  0
   14.0185   14.4889  -58.9790 C   0  0  0  0  0  0  0  0  0  0  0  0
   14.3749   15.1264  -57.7717 C   0  0  0  0  0  0  0  0  0  0  0  0
   13.5232   16.0511  -57.1655 C   0  0  0  0  0  0  0  0  0  0  0  0
   12.3000   16.3502  -57.7508 C   0  0  0  0  0  0  0  0  0  0  0  0
   11.9408   15.7452  -58.9549 C   0  0  0  0  0  0  0  0  0  0  0  0
   12.8042   14.8414  -59.5970 C   0  0  0  0  0  0  0  0  0  0  0  0
   12.4458   14.2752  -60.7895 O   0  0  0  0  0  0  0  0  0  0  0  0
   11.5002   15.0143  -61.5808 C   0  0  0  0  0  0  0  0  0  0  0  0
   11.8256   14.9608  -63.0574 C   0  0  0  0  0  0  0  0  0  0  0  0
   10.8997   14.4778  -63.9971 C   0  0  0  0  0  0  0  0  0  0  0  0
   11.2261   14.4187  -65.3525 C   0  0  0  0  0  0  0  0  0  0  0  0
   12.4866   14.8282  -65.7847 C   0  0  0  0  0  0  0  0  0  0  0  0
   13.4222   15.2940  -64.8611 C   0  0  0  0  0  0  0  0  0  0  0  0
   13.0970   15.3548  -63.5042 C   0  0  0  0  0  0  0  0  0  0  0  0
   17.2732   12.5021  -62.9369 N   0  0  0  0  0  0  0  0  0  0  0  0
   17.4126   11.9258  -61.6876 C   0  0  0  0  0  0  0  0  0  0  0  0
   18.2747   11.1133  -61.3695 O   0  0  0  0  0  0  0  0  0  0  0  0
   16.5562   13.2075  -63.0313 H   0  0  0  0  0  0  0  0  0  0  0  0
   19.3426   12.9535  -66.0288 C   0  0  0  0  0  0  0  0  0  0  0  0
   19.5791   11.6242  -66.3680 C   0  0  0  0  0  0  0  0  0  0  0  0
   19.0635   10.6248  -65.5549 C   0  0  0  0  0  0  0  0  0  0  0  0
   19.2844    9.3389  -65.8678 F   0  0  0  0  0  0  0  0  0  0  0  0
   18.3116   10.9295  -64.4225 C   0  0  0  0  0  0  0  0  0  0  0  0
   18.0543   12.2656  -64.0890 C   0  0  0  0  0  0  0  0  0  0  0  0
   18.5772   13.2763  -64.9019 C   0  0  0  0  0  0  0  0  0  0  0  0
   19.8109   13.9961  -66.8837 N   0  0  0  0  0  0  0  0  0  0  0  0
   20.8039   13.9664  -67.1179 H   0  0  0  0  0  0  0  0  0  0  0  0
   19.8541   13.3156  -69.4879 C   0  0  0  0  0  0  0  0  0  0  0  0
   18.9288   14.2731  -68.3048 S   0  0  0  0  0  0  0  0  0  0  0  0
   17.6600   13.6083  -68.0961 O   0  0  0  0  0  0  0  0  0  0  0  0
   18.9930   15.6736  -68.6639 O   0  0  0  0  0  0  0  0  0  0  0  0
   16.2317   10.6647  -59.4107 H   0  0  0  0  0  0  0  0  0  0  0  0
   15.8523   14.3819  -61.2444 H   0  0  0  0  0  0  0  0  0  0  0  0
   15.2807   14.9052  -57.3294 H   0  0  0  0  0  0  0  0  0  0  0  0
   13.8017   16.5113  -56.2848 H   0  0  0  0  0  0  0  0  0  0  0  0
   11.6584   17.0184  -57.2960 H   0  0  0  0  0  0  0  0  0  0  0  0
   11.0268   15.9646  -59.3809 H   0  0  0  0  0  0  0  0  0  0  0  0
   11.5087   16.0359  -61.2628 H   0  0  0  0  0  0  0  0  0  0  0  0
   10.5366   14.5709  -61.4404 H   0  0  0  0  0  0  0  0  0  0  0  0
    9.9687   14.1635  -63.6818 H   0  0  0  0  0  0  0  0  0  0  0  0
   10.5342   14.0718  -66.0351 H   0  0  0  0  0  0  0  0  0  0  0  0
   12.7273   14.7867  -66.7874 H   0  0  0  0  0  0  0  0  0  0  0  0
   14.3563   15.5942  -65.1809 H   0  0  0  0  0  0  0  0  0  0  0  0
   13.7967   15.6920  -62.8247 H   0  0  0  0  0  0  0  0  0  0  0  0
   20.1279   11.3863  -67.2089 H   0  0  0  0  0  0  0  0  0  0  0  0
   17.9436   10.1700  -63.8285 H   0  0  0  0  0  0  0  0  0  0  0  0
   18.3978   14.2657  -64.6698 H   0  0  0  0  0  0  0  0  0  0  0  0
   19.3976   13.4020  -70.4518 H   0  0  0  0  0  0  0  0  0  0  0  0
   19.8619   12.2886  -69.1877 H   0  0  0  0  0  0  0  0  0  0  0  0
   20.8587   13.6810  -69.5350 H   0  0  0  0  0  0  0  0  0  0  0  0
  1  2  1  0
  2  3  2  0
  2 37  1  0
  3  4  1  0
  4  5  1  0
  4  6  1  0
  5  1  2  0
  5 38  1  0
  6  7  2  0
  7  8  1  0
  7 39  1  0
  8  9  2  0
  8 40  1  0
  9 10  1  0
  9 41  1  0
 10 11  2  0
 10 42  1  0
 11 12  1  0
 11  6  1  0
 12 13  1  0
 13 14  1  0
 13 43  1  0
 13 44  1  0
 14 15  2  0
 15 16  1  0
 15 45  1  0
 16 17  2  0
 16 46  1  0
 17 18  1  0
 17 47  1  0
 18 19  2  0
 18 48  1  0
 19 14  1  0
 19 49  1  0
 20 21  1  0
 20 23  1  0
 21 22  2  0
 21  1  1  0
 24 25  2  0
 25 26  1  0
 25 50  1  0
 26 27  1  0
 26 28  2  0
 28 29  1  0
 28 51  1  0
 29 20  1  0
 29 30  2  0
 30 24  1  0
 30 52  1  0
 31 24  1  0
 31 32  1  0
 33 34  1  0
 33 53  1  0
 33 54  1  0
 33 55  1  0
 34 35  2  0
 34 36  2  0
 34 31  1  0
M  END
>  <minimizedAffinity>  (2) 
-7.95822

>  <mol_id>  (2) 
21889

>  <source_index>  (2) 
1

>  <layer>  (2) 
L4

>  <uniprot>  (2) 
Q08211

>  <paff>  (2) 
6.8476999999999997

>  <smiles>  (2) 
CS(=O)(=O)Nc1cc(F)cc(NC(=O)c2cnn(c2)-c2ccccc2OCc2ccccc2)c1

$$$$
L4:Q08211:22694
     RDKit          3D

 49 51  0  0  0  0  0  0  0  0999 V2000
   23.0650    1.3324  -62.1498 C   0  0  0  0  0  0  0  0  0  0  0  0
   21.8467    1.3037  -62.2769 O   0  0  0  0  0  0  0  0  0  0  0  0
   23.7479    1.4555  -60.9525 N   0  0  0  0  0  0  0  0  0  0  0  0
   24.7429    1.6124  -61.0293 H   0  0  0  0  0  0  0  0  0  0  0  0
   23.2022    1.4912  -59.6514 C   0  0  0  0  0  0  0  0  0  0  0  0
   22.6443    0.3857  -59.0087 C   0  0  0  0  0  0  0  0  0  0  0  0
   22.1466    0.5101  -57.7101 C   0  0  0  0  0  0  0  0  0  0  0  0
   21.4793   -0.8671  -56.9195 Cl  0  0  0  0  0  0  0  0  0  0  0  0
   22.1879    1.7314  -57.0410 C   0  0  0  0  0  0  0  0  0  0  0  0
   22.7236    2.8446  -57.6807 C   0  0  0  0  0  0  0  0  0  0  0  0
   23.2461    2.7183  -58.9732 C   0  0  0  0  0  0  0  0  0  0  0  0
   22.8054    4.1169  -57.0434 N   0  0  0  0  0  0  0  0  0  0  0  0
   23.6546    4.6676  -57.1693 H   0  0  0  0  0  0  0  0  0  0  0  0
   21.4444    5.0877  -56.8507 S   0  0  0  0  0  0  0  0  0  0  0  0
   21.0039    4.7950  -55.1485 C   0  0  0  0  0  0  0  0  0  0  0  0
   20.4215    4.4797  -57.6750 O   0  0  0  0  0  0  0  0  0  0  0  0
   21.8037    6.4787  -57.0050 O   0  0  0  0  0  0  0  0  0  0  0  0
   25.6248    1.5846  -64.8440 C   0  0  0  0  0  0  0  0  0  0  0  0
   25.1576    1.9797  -63.6003 C   0  0  0  0  0  0  0  0  0  0  0  0
   23.9467    1.2775  -63.3210 C   0  0  0  0  0  0  0  0  0  0  0  0
   23.7313    0.4563  -64.4141 C   0  0  0  0  0  0  0  0  0  0  0  0
   24.7206    0.6676  -65.3364 N   0  0  0  0  0  0  0  0  0  0  0  0
   24.7767    0.0194  -66.6298 C   0  0  0  0  0  0  0  0  0  0  0  0
   28.1372    0.0531  -64.6073 C   0  0  0  0  0  0  0  0  0  0  0  0
   28.0306    1.2945  -65.4547 C   0  0  0  0  0  0  0  0  0  0  0  0
   29.1609    1.7291  -66.1647 C   0  0  0  0  0  0  0  0  0  0  0  0
   29.1014    2.8776  -66.9443 C   0  0  0  0  0  0  0  0  0  0  0  0
   30.1911    3.2778  -67.6112 F   0  0  0  0  0  0  0  0  0  0  0  0
   27.9341    3.6198  -67.0396 C   0  0  0  0  0  0  0  0  0  0  0  0
   26.7924    3.2041  -66.3455 C   0  0  0  0  0  0  0  0  0  0  0  0
   26.8263    2.0305  -65.5588 C   0  0  0  0  0  0  0  0  0  0  0  0
   25.6038    4.0035  -66.4509 C   0  0  0  0  0  0  0  0  0  0  0  0
   24.6580    4.6724  -66.5321 N   0  0  0  0  0  0  0  0  0  0  0  0
   22.5995   -0.5243  -59.4933 H   0  0  0  0  0  0  0  0  0  0  0  0
   21.8240    1.8097  -56.0785 H   0  0  0  0  0  0  0  0  0  0  0  0
   23.6694    3.5393  -59.4335 H   0  0  0  0  0  0  0  0  0  0  0  0
   20.7355    3.7671  -55.0212 H   0  0  0  0  0  0  0  0  0  0  0  0
   20.1739    5.4159  -54.8831 H   0  0  0  0  0  0  0  0  0  0  0  0
   21.8379    5.0264  -54.5194 H   0  0  0  0  0  0  0  0  0  0  0  0
   25.6105    2.6680  -62.9788 H   0  0  0  0  0  0  0  0  0  0  0  0
   22.9494   -0.2093  -64.5174 H   0  0  0  0  0  0  0  0  0  0  0  0
   23.9414   -0.6411  -66.7343 H   0  0  0  0  0  0  0  0  0  0  0  0
   25.6856   -0.5396  -66.7095 H   0  0  0  0  0  0  0  0  0  0  0  0
   24.7446    0.7599  -67.4015 H   0  0  0  0  0  0  0  0  0  0  0  0
   29.1302   -0.3400  -64.6738 H   0  0  0  0  0  0  0  0  0  0  0  0
   27.4397   -0.6788  -64.9576 H   0  0  0  0  0  0  0  0  0  0  0  0
   27.9174    0.2965  -63.5888 H   0  0  0  0  0  0  0  0  0  0  0  0
   30.0407    1.1927  -66.1073 H   0  0  0  0  0  0  0  0  0  0  0  0
   27.9075    4.4735  -67.6188 H   0  0  0  0  0  0  0  0  0  0  0  0
  1  2  2  0
  1  3  1  0
  3  5  1  0
  3  4  1  0
  5  6  2  0
  6  7  1  0
  6 34  1  0
  7  8  1  0
  7  9  2  0
  9 10  1  0
  9 35  1  0
 10 12  1  0
 10 11  2  0
 11  5  1  0
 11 36  1  0
 12 14  1  0
 12 13  1  0
 14 15  1  0
 14 16  2  0
 14 17  2  0
 15 37  1  0
 15 38  1  0
 15 39  1  0
 18 19  2  0
 19 20  1  0
 19 40  1  0
 20  1  1  0
 20 21  2  0
 21 22  1  0
 21 41  1  0
 22 23  1  0
 22 18  1  0
 23 42  1  0
 23 43  1  0
 23 44  1  0
 24 25  1  0
 24 45  1  0
 24 46  1  0
 24 47  1  0
 25 26  2  0
 26 27  1  0
 26 48  1  0
 27 28  1  0
 27 29  2  0
 29 30  1  0
 29 49  1  0
 30 32  1  0
 30 31  2  0
 31 18  1  0
 31 25  1  0
 32 33  3  0
M  END
>  <minimizedAffinity>  (3) 
-5.41528

>  <mol_id>  (3) 
22694

>  <source_index>  (3) 
2

>  <layer>  (3) 
L4

>  <uniprot>  (3) 
Q08211

>  <paff>  (3) 
7.1623999999999999

>  <smiles>  (3) 
Cc1cc(F)cc(C#N)c1-c1cc(C(=O)Nc2cc(Cl)cc(NS(C)(=O)=O)c2)cn1C

$$$$
L4:Q08211:29796
     RDKit          3D

 57 59  0  0  0  0  0  0  0  0999 V2000
   17.9587   12.0027  -61.8429 C   0  0  0  0  0  0  0  0  0  0  0  0
   17.6965   10.8611  -61.1084 C   0  0  0  0  0  0  0  0  0  0  0  0
   16.3298   11.0203  -60.0990 S   0  0  0  0  0  0  0  0  0  0  0  0
   16.0446   12.6269  -60.6137 C   0  0  0  0  0  0  0  0  0  0  0  0
   16.9860   13.0166  -61.5501 C   0  0  0  0  0  0  0  0  0  0  0  0
   14.9400   13.4392  -60.1012 C   0  0  0  0  0  0  0  0  0  0  0  0
   14.1155   12.9737  -59.3211 O   0  0  0  0  0  0  0  0  0  0  0  0
   14.9181   14.7437  -60.5701 N   0  0  0  0  0  0  0  0  0  0  0  0
   15.6680   14.9737  -61.2113 H   0  0  0  0  0  0  0  0  0  0  0  0
   14.0000   15.7697  -60.2663 C   0  0  0  0  0  0  0  0  0  0  0  0
   12.9602   16.1660  -61.1067 C   0  0  0  0  0  0  0  0  0  0  0  0
   12.0909   17.1844  -60.7099 C   0  0  0  0  0  0  0  0  0  0  0  0
   10.6709   17.6963  -61.8503 Br  0  0  0  0  0  0  0  0  0  0  0  0
   12.2513   17.8283  -59.4843 C   0  0  0  0  0  0  0  0  0  0  0  0
   13.3022   17.4601  -58.6497 C   0  0  0  0  0  0  0  0  0  0  0  0
   14.1596   16.4210  -59.0340 C   0  0  0  0  0  0  0  0  0  0  0  0
   13.5084   18.0586  -57.3731 N   0  0  0  0  0  0  0  0  0  0  0  0
   13.7761   17.4589  -56.5920 H   0  0  0  0  0  0  0  0  0  0  0  0
   14.1003   19.6232  -57.2074 S   0  0  0  0  0  0  0  0  0  0  0  0
   15.4215   19.4128  -56.0300 C   0  0  0  0  0  0  0  0  0  0  0  0
   13.0443   20.3627  -56.5473 O   0  0  0  0  0  0  0  0  0  0  0  0
   14.6600   20.0757  -58.4599 O   0  0  0  0  0  0  0  0  0  0  0  0
   19.0884   12.1544  -62.8254 C   0  0  0  0  0  0  0  0  0  0  0  0
   18.3478   13.0799  -65.7081 C   0  0  0  0  0  0  0  0  0  0  0  0
   18.4962   14.0212  -64.9453 O   0  0  0  0  0  0  0  0  0  0  0  0
   18.5679   11.7412  -65.3026 N   0  0  0  0  0  0  0  0  0  0  0  0
   18.4788   10.6203  -66.1236 C   0  0  0  0  0  0  0  0  0  0  0  0
   18.7870    9.4890  -65.4081 C   0  0  0  0  0  0  0  0  0  0  0  0
   19.0710    9.8997  -64.0943 C   0  0  0  0  0  0  0  0  0  0  0  0
   18.9211   11.2760  -64.0306 C   0  0  0  0  0  0  0  0  0  0  0  0
   17.9846   13.1151  -67.0143 O   0  0  0  0  0  0  0  0  0  0  0  0
   18.6907   13.1757  -69.3712 C   0  0  0  0  0  0  0  0  0  0  0  0
   18.8010   13.8162  -67.9846 C   0  0  0  0  0  0  0  0  0  0  0  0
   18.2055   15.2299  -68.0444 C   0  0  0  0  0  0  0  0  0  0  0  0
   20.2563   13.9145  -67.5164 C   0  0  0  0  0  0  0  0  0  0  0  0
   18.2672   10.0031  -61.1647 H   0  0  0  0  0  0  0  0  0  0  0  0
   16.9884   13.9476  -61.9955 H   0  0  0  0  0  0  0  0  0  0  0  0
   12.8330   15.7066  -62.0220 H   0  0  0  0  0  0  0  0  0  0  0  0
   11.5959   18.5723  -59.1980 H   0  0  0  0  0  0  0  0  0  0  0  0
   14.9206   16.1300  -58.4006 H   0  0  0  0  0  0  0  0  0  0  0  0
   15.0181   19.0774  -55.0974 H   0  0  0  0  0  0  0  0  0  0  0  0
   15.9233   20.3469  -55.8863 H   0  0  0  0  0  0  0  0  0  0  0  0
   16.1163   18.6878  -56.3994 H   0  0  0  0  0  0  0  0  0  0  0  0
   19.1296   13.1742  -63.1467 H   0  0  0  0  0  0  0  0  0  0  0  0
   19.9914   11.8617  -62.3316 H   0  0  0  0  0  0  0  0  0  0  0  0
   18.2195   10.6369  -67.1223 H   0  0  0  0  0  0  0  0  0  0  0  0
   18.8063    8.5216  -65.7669 H   0  0  0  0  0  0  0  0  0  0  0  0
   19.3438    9.2834  -63.3128 H   0  0  0  0  0  0  0  0  0  0  0  0
   19.3035   13.7150  -70.0630 H   0  0  0  0  0  0  0  0  0  0  0  0
   17.6723   13.2059  -69.6980 H   0  0  0  0  0  0  0  0  0  0  0  0
   19.0193   12.1586  -69.3214 H   0  0  0  0  0  0  0  0  0  0  0  0
   18.7570   15.8199  -68.7463 H   0  0  0  0  0  0  0  0  0  0  0  0
   18.2621   15.6820  -67.0762 H   0  0  0  0  0  0  0  0  0  0  0  0
   17.1823   15.1732  -68.3523 H   0  0  0  0  0  0  0  0  0  0  0  0
   20.8330   14.4358  -68.2516 H   0  0  0  0  0  0  0  0  0  0  0  0
   20.6550   12.9307  -67.3822 H   0  0  0  0  0  0  0  0  0  0  0  0
   20.2973   14.4457  -66.5884 H   0  0  0  0  0  0  0  0  0  0  0  0
  1  2  2  0
  2  3  1  0
  2 36  1  0
  3  4  1  0
  4  5  2  0
  4  6  1  0
  5  1  1  0
  5 37  1  0
  6  7  2  0
  6  8  1  0
  8 10  1  0
  8  9  1  0
 10 11  2  0
 11 12  1  0
 11 38  1  0
 12 13  1  0
 12 14  2  0
 14 15  1  0
 14 39  1  0
 15 17  1  0
 15 16  2  0
 16 10  1  0
 16 40  1  0
 17 19  1  0
 17 18  1  0
 19 20  1  0
 19 21  2  0
 19 22  2  0
 20 41  1  0
 20 42  1  0
 20 43  1  0
 23  1  1  0
 23 44  1  0
 23 45  1  0
 24 25  2  0
 24 26  1  0
 26 27  1  0
 27 28  2  0
 27 46  1  0
 28 29  1  0
 28 47  1  0
 29 30  2  0
 29 48  1  0
 30 23  1  0
 30 26  1  0
 31 24  1  0
 32 33  1  0
 32 49  1  0
 32 50  1  0
 32 51  1  0
 33 34  1  0
 33 35  1  0
 33 31  1  0
 34 52  1  0
 34 53  1  0
 34 54  1  0
 35 55  1  0
 35 56  1  0
 35 57  1  0
M  END
>  <minimizedAffinity>  (4) 
-5.54361

>  <mol_id>  (4) 
29796

>  <source_index>  (4) 
3

>  <layer>  (4) 
L4

>  <uniprot>  (4) 
Q08211

>  <paff>  (4) 
7.2146999999999997

>  <smiles>  (4) 
CC(C)(C)OC(=O)n1cccc1Cc1csc(c1)C(=O)Nc1cc(Br)cc(NS(C)(=O)=O)c1

$$$$
L4:Q08211:38600
     RDKit          3D

 43 45  0  0  0  0  0  0  0  0999 V2000
   16.9836   11.2829  -61.7757 N   0  0  0  0  0  0  0  0  0  0  0  0
   18.2041   11.7723  -62.2063 C   0  0  0  0  0  0  0  0  0  0  0  0
   18.9718   12.4822  -61.5690 O   0  0  0  0  0  0  0  0  0  0  0  0
   16.5392   10.5855  -62.3594 H   0  0  0  0  0  0  0  0  0  0  0  0
   15.0828   10.7511  -58.6556 C   0  0  0  0  0  0  0  0  0  0  0  0
   14.9039   12.0448  -58.1810 C   0  0  0  0  0  0  0  0  0  0  0  0
   15.4444   13.1088  -58.8973 C   0  0  0  0  0  0  0  0  0  0  0  0
   15.2317   14.7141  -58.3105 Cl  0  0  0  0  0  0  0  0  0  0  0  0
   16.1489   12.8913  -60.0839 C   0  0  0  0  0  0  0  0  0  0  0  0
   16.3171   11.5929  -60.5702 C   0  0  0  0  0  0  0  0  0  0  0  0
   15.7767   10.5216  -59.8463 C   0  0  0  0  0  0  0  0  0  0  0  0
   14.5034    9.6631  -57.9378 N   0  0  0  0  0  0  0  0  0  0  0  0
   15.1595    8.9405  -57.6326 H   0  0  0  0  0  0  0  0  0  0  0  0
   12.1618    8.5681  -57.1953 C   0  0  0  0  0  0  0  0  0  0  0  0
   13.1527    8.9119  -58.6331 S   0  0  0  0  0  0  0  0  0  0  0  0
   13.6436    7.6506  -59.1462 O   0  0  0  0  0  0  0  0  0  0  0  0
   12.4557    9.8464  -59.4878 O   0  0  0  0  0  0  0  0  0  0  0  0
   18.6140   11.3268  -63.5681 C   0  0  0  0  0  0  0  0  0  0  0  0
   18.9270    9.9906  -63.8407 C   0  0  0  0  0  0  0  0  0  0  0  0
   19.3048    9.6187  -65.1296 C   0  0  0  0  0  0  0  0  0  0  0  0
   19.3608   10.5754  -66.1470 C   0  0  0  0  0  0  0  0  0  0  0  0
   19.0311   11.9198  -65.9029 C   0  0  0  0  0  0  0  0  0  0  0  0
   18.6524   12.2780  -64.5983 C   0  0  0  0  0  0  0  0  0  0  0  0
   19.0790   12.9208  -66.9816 C   0  0  0  0  0  0  0  0  0  0  0  0
   20.0412   13.9380  -66.9851 C   0  0  0  0  0  0  0  0  0  0  0  0
   20.0457   14.8595  -68.0213 C   0  0  0  0  0  0  0  0  0  0  0  0
   19.1668   14.8436  -69.0437 N   0  0  0  0  0  0  0  0  0  0  0  0
   18.2472   13.8573  -69.0321 C   0  0  0  0  0  0  0  0  0  0  0  0
   18.1649   12.8902  -68.0418 C   0  0  0  0  0  0  0  0  0  0  0  0
   14.3776   12.2143  -57.3096 H   0  0  0  0  0  0  0  0  0  0  0  0
   16.5455   13.6910  -60.6018 H   0  0  0  0  0  0  0  0  0  0  0  0
   15.8920    9.5571  -60.1949 H   0  0  0  0  0  0  0  0  0  0  0  0
   11.2564    8.0824  -57.4940 H   0  0  0  0  0  0  0  0  0  0  0  0
   11.9268    9.4851  -56.6965 H   0  0  0  0  0  0  0  0  0  0  0  0
   12.7064    7.9301  -56.5310 H   0  0  0  0  0  0  0  0  0  0  0  0
   18.8783    9.2835  -63.0906 H   0  0  0  0  0  0  0  0  0  0  0  0
   19.5435    8.6355  -65.3331 H   0  0  0  0  0  0  0  0  0  0  0  0
   19.6497   10.2893  -67.0955 H   0  0  0  0  0  0  0  0  0  0  0  0
   18.3982   13.2572  -64.3945 H   0  0  0  0  0  0  0  0  0  0  0  0
   20.7379   14.0011  -66.2264 H   0  0  0  0  0  0  0  0  0  0  0  0
   20.7637   15.6007  -68.0092 H   0  0  0  0  0  0  0  0  0  0  0  0
   17.5649   13.8201  -69.8054 H   0  0  0  0  0  0  0  0  0  0  0  0
   17.4395   12.1575  -68.0856 H   0  0  0  0  0  0  0  0  0  0  0  0
  1  2  1  0
  1  4  1  0
  2  3  2  0
  2 18  1  0
  5  6  2  0
  6  7  1  0
  6 30  1  0
  7  8  1  0
  7  9  2  0
  9 10  1  0
  9 31  1  0
 10  1  1  0
 10 11  2  0
 11  5  1  0
 11 32  1  0
 12  5  1  0
 12 13  1  0
 14 15  1  0
 14 33  1  0
 14 34  1  0
 14 35  1  0
 15 16  2  0
 15 17  2  0
 15 12  1  0
 18 19  2  0
 19 20  1  0
 19 36  1  0
 20 21  2  0
 20 37  1  0
 21 22  1  0
 21 38  1  0
 22 23  2  0
 22 24  1  0
 23 18  1  0
 23 39  1  0
 24 25  2  0
 25 26  1  0
 25 40  1  0
 26 27  2  0
 26 41  1  0
 27 28  1  0
 28 29  2  0
 28 42  1  0
 29 24  1  0
 29 43  1  0
M  END
>  <minimizedAffinity>  (5) 
-8.50627

>  <mol_id>  (5) 
38600

>  <source_index>  (5) 
4

>  <layer>  (5) 
L4

>  <uniprot>  (5) 
Q08211

>  <paff>  (5) 
6.4522000000000004

>  <smiles>  (5) 
CS(=O)(=O)Nc1cc(Cl)cc(NC(=O)c2cccc(c2)-c2ccncc2)c1

$$$$
L4:Q08211:42196
     RDKit          3D

 56 59  0  0  0  0  0  0  0  0999 V2000
   25.2828    7.2993  -55.4356 C   0  0  0  0  0  0  0  0  0  0  0  0
   24.7328    6.7594  -56.7085 C   0  0  0  0  0  0  0  0  0  0  0  0
   23.9032    5.6604  -56.8519 C   0  0  0  0  0  0  0  0  0  0  0  0
   23.8434    5.3013  -58.2252 C   0  0  0  0  0  0  0  0  0  0  0  0
   24.6139    6.2438  -58.8811 C   0  0  0  0  0  0  0  0  0  0  0  0
   25.0568    7.2068  -57.9816 N   0  0  0  0  0  0  0  0  0  0  0  0
   25.8021    8.3584  -58.3934 C   0  0  0  0  0  0  0  0  0  0  0  0
   25.0562    9.4845  -58.5841 N   0  0  0  0  0  0  0  0  0  0  0  0
   25.6836   10.5877  -59.0568 C   0  0  0  0  0  0  0  0  0  0  0  0
   27.0386   10.6621  -59.3546 C   0  0  0  0  0  0  0  0  0  0  0  0
   27.7885    9.5181  -59.0682 C   0  0  0  0  0  0  0  0  0  0  0  0
   27.1925    8.3499  -58.5488 C   0  0  0  0  0  0  0  0  0  0  0  0
   28.1173    7.2457  -58.1212 C   0  0  0  0  0  0  0  0  0  0  0  0
   27.6389   11.8261  -59.8658 N   0  0  0  0  0  0  0  0  0  0  0  0
   28.7070   11.8985  -60.8249 C   0  0  0  0  0  0  0  0  0  0  0  0
   28.2936   13.3551  -61.1025 C   0  0  0  0  0  0  0  0  0  0  0  0
   29.0409   14.3131  -60.5013 F   0  0  0  0  0  0  0  0  0  0  0  0
   28.1903   13.7039  -62.4071 F   0  0  0  0  0  0  0  0  0  0  0  0
   26.9752   12.9834  -60.4016 C   0  0  0  0  0  0  0  0  0  0  0  0
   23.1224    4.1494  -58.7796 C   0  0  0  0  0  0  0  0  0  0  0  0
   21.9494    3.9532  -58.4805 O   0  0  0  0  0  0  0  0  0  0  0  0
   23.8762    3.3503  -59.6217 N   0  0  0  0  0  0  0  0  0  0  0  0
   24.8405    3.6255  -59.7520 H   0  0  0  0  0  0  0  0  0  0  0  0
   23.4708    2.1715  -60.2854 C   0  0  0  0  0  0  0  0  0  0  0  0
   23.0659    1.0961  -59.4870 C   0  0  0  0  0  0  0  0  0  0  0  0
   22.6501   -0.1005  -60.0744 C   0  0  0  0  0  0  0  0  0  0  0  0
   22.1482   -1.4070  -59.0720 Cl  0  0  0  0  0  0  0  0  0  0  0  0
   22.6359   -0.2464  -61.4569 C   0  0  0  0  0  0  0  0  0  0  0  0
   23.0422    0.8176  -62.2560 C   0  0  0  0  0  0  0  0  0  0  0  0
   23.4551    2.0217  -61.6752 C   0  0  0  0  0  0  0  0  0  0  0  0
   23.0655    0.7016  -63.6755 N   0  0  0  0  0  0  0  0  0  0  0  0
   22.2983    1.1329  -64.1904 H   0  0  0  0  0  0  0  0  0  0  0  0
   24.5329    0.8324  -64.4937 S   0  0  0  0  0  0  0  0  0  0  0  0
   24.1515    0.1283  -66.0866 C   0  0  0  0  0  0  0  0  0  0  0  0
   25.4396   -0.0768  -63.8255 O   0  0  0  0  0  0  0  0  0  0  0  0
   24.8657    2.2276  -64.6735 O   0  0  0  0  0  0  0  0  0  0  0  0
   24.8586    6.7674  -54.6098 H   0  0  0  0  0  0  0  0  0  0  0  0
   25.0391    8.3380  -55.3539 H   0  0  0  0  0  0  0  0  0  0  0  0
   26.3462    7.1808  -55.4279 H   0  0  0  0  0  0  0  0  0  0  0  0
   23.4080    5.1795  -56.0848 H   0  0  0  0  0  0  0  0  0  0  0  0
   24.8287    6.2338  -59.8905 H   0  0  0  0  0  0  0  0  0  0  0  0
   25.1136   11.4349  -59.2067 H   0  0  0  0  0  0  0  0  0  0  0  0
   28.8058    9.5283  -59.2414 H   0  0  0  0  0  0  0  0  0  0  0  0
   29.1251    7.5102  -58.3647 H   0  0  0  0  0  0  0  0  0  0  0  0
   27.8529    6.3421  -58.6296 H   0  0  0  0  0  0  0  0  0  0  0  0
   28.0325    7.0984  -57.0648 H   0  0  0  0  0  0  0  0  0  0  0  0
   28.5981   11.2394  -61.6608 H   0  0  0  0  0  0  0  0  0  0  0  0
   29.7122   11.6458  -60.5592 H   0  0  0  0  0  0  0  0  0  0  0  0
   26.1663   12.7628  -61.0663 H   0  0  0  0  0  0  0  0  0  0  0  0
   26.4673   13.6783  -59.7659 H   0  0  0  0  0  0  0  0  0  0  0  0
   23.0746    1.1878  -58.4591 H   0  0  0  0  0  0  0  0  0  0  0  0
   22.3277   -1.1333  -61.8853 H   0  0  0  0  0  0  0  0  0  0  0  0
   23.7505    2.8057  -62.2778 H   0  0  0  0  0  0  0  0  0  0  0  0
   23.9028   -0.9058  -65.9692 H   0  0  0  0  0  0  0  0  0  0  0  0
   25.0017    0.2199  -66.7298 H   0  0  0  0  0  0  0  0  0  0  0  0
   23.3211    0.6482  -66.5168 H   0  0  0  0  0  0  0  0  0  0  0  0
  1  2  1  0
  1 37  1  0
  1 38  1  0
  1 39  1  0
  2  3  2  0
  3  4  1  0
  3 40  1  0
  4  5  2  0
  4 20  1  0
  5  6  1  0
  5 41  1  0
  6  7  1  0
  6  2  1  0
  7  8  2  0
  8  9  1  0
  9 10  2  0
  9 42  1  0
 10 11  1  0
 10 14  1  0
 11 12  2  0
 11 43  1  0
 12 13  1  0
 12  7  1  0
 13 44  1  0
 13 45  1  0
 13 46  1  0
 14 15  1  0
 15 16  1  0
 15 47  1  0
 15 48  1  0
 16 17  1  0
 16 18  1  0
 16 19  1  0
 19 14  1  0
 19 49  1  0
 19 50  1  0
 20 21  2  0
 20 22  1  0
 22 24  1  0
 22 23  1  0
 24 25  2  0
 25 26  1  0
 25 51  1  0
 26 27  1  0
 26 28  2  0
 28 29  1  0
 28 52  1  0
 29 31  1  0
 29 30  2  0
 30 24  1  0
 30 53  1  0
 31 33  1  0
 31 32  1  0
 33 34  1  0
 33 35  2  0
 33 36  2  0
 34 54  1  0
 34 55  1  0
 34 56  1  0
M  END
>  <minimizedAffinity>  (6) 
-5.33493

>  <mol_id>  (6) 
42196

>  <source_index>  (6) 
5

>  <layer>  (6) 
L4

>  <uniprot>  (6) 
Q08211

>  <paff>  (6) 
7.7305000000000001

>  <smiles>  (6) 
Cc1cc(cn1-c1ncc(cc1C)N1CC(F)(F)C1)C(=O)Nc1cc(Cl)cc(NS(C)(=O)=O)c1

$$$$
L4:Q08211:46584
     RDKit          3D

 43 45  0  0  0  0  0  0  0  0999 V2000
   17.1885   11.5540  -62.0472 C   0  0  0  0  0  0  0  0  0  0  0  0
   17.0665   10.3823  -62.3919 O   0  0  0  0  0  0  0  0  0  0  0  0
   17.9835   12.4758  -62.7174 N   0  0  0  0  0  0  0  0  0  0  0  0
   18.1143   13.3683  -62.2617 H   0  0  0  0  0  0  0  0  0  0  0  0
   18.6866   12.2953  -63.9292 C   0  0  0  0  0  0  0  0  0  0  0  0
   19.3509   11.1212  -64.2808 C   0  0  0  0  0  0  0  0  0  0  0  0
   20.0087   11.0380  -65.5073 C   0  0  0  0  0  0  0  0  0  0  0  0
   20.8466    9.5942  -65.9320 Cl  0  0  0  0  0  0  0  0  0  0  0  0
   20.0010   12.1097  -66.3983 C   0  0  0  0  0  0  0  0  0  0  0  0
   19.3083   13.2772  -66.0785 C   0  0  0  0  0  0  0  0  0  0  0  0
   18.6877   13.3746  -64.8290 C   0  0  0  0  0  0  0  0  0  0  0  0
   19.4165   14.3725  -66.9928 N   0  0  0  0  0  0  0  0  0  0  0  0
   20.2812   14.4293  -67.5350 H   0  0  0  0  0  0  0  0  0  0  0  0
   18.1256   14.9264  -67.9169 S   0  0  0  0  0  0  0  0  0  0  0  0
   17.8479   13.5308  -68.9854 C   0  0  0  0  0  0  0  0  0  0  0  0
   17.0033   14.9989  -67.0058 O   0  0  0  0  0  0  0  0  0  0  0  0
   18.5199   16.0617  -68.7197 O   0  0  0  0  0  0  0  0  0  0  0  0
   14.6811   11.9612  -57.3908 C   0  0  0  0  0  0  0  0  0  0  0  0
   15.3574   12.3075  -58.6808 C   0  0  0  0  0  0  0  0  0  0  0  0
   15.9376   11.0326  -59.6683 S   0  0  0  0  0  0  0  0  0  0  0  0
   16.5287   12.1037  -60.8627 C   0  0  0  0  0  0  0  0  0  0  0  0
   16.2665   13.4163  -60.5146 C   0  0  0  0  0  0  0  0  0  0  0  0
   15.5979   13.5513  -59.2475 C   0  0  0  0  0  0  0  0  0  0  0  0
   15.1949   14.8080  -58.6108 C   0  0  0  0  0  0  0  0  0  0  0  0
   15.6117   14.9951  -57.3287 N   0  0  0  0  0  0  0  0  0  0  0  0
   15.2612   16.1612  -56.7325 C   0  0  0  0  0  0  0  0  0  0  0  0
   14.5196   17.1491  -57.3579 C   0  0  0  0  0  0  0  0  0  0  0  0
   14.2086   18.2789  -56.7117 F   0  0  0  0  0  0  0  0  0  0  0  0
   14.1041   16.9555  -58.6642 C   0  0  0  0  0  0  0  0  0  0  0  0
   14.4492   15.7688  -59.2991 C   0  0  0  0  0  0  0  0  0  0  0  0
   14.0490   15.5761  -60.5647 F   0  0  0  0  0  0  0  0  0  0  0  0
   19.3558   10.3161  -63.6352 H   0  0  0  0  0  0  0  0  0  0  0  0
   20.5078   12.0394  -67.2945 H   0  0  0  0  0  0  0  0  0  0  0  0
   18.2216   14.2560  -64.5627 H   0  0  0  0  0  0  0  0  0  0  0  0
   17.5553   12.6851  -68.3988 H   0  0  0  0  0  0  0  0  0  0  0  0
   18.7489   13.3026  -69.5155 H   0  0  0  0  0  0  0  0  0  0  0  0
   17.0725   13.7655  -69.6844 H   0  0  0  0  0  0  0  0  0  0  0  0
   14.6701   10.8983  -57.2680 H   0  0  0  0  0  0  0  0  0  0  0  0
   13.6764   12.3290  -57.4048 H   0  0  0  0  0  0  0  0  0  0  0  0
   15.2134   12.4087  -56.5776 H   0  0  0  0  0  0  0  0  0  0  0  0
   16.5253   14.2212  -61.1064 H   0  0  0  0  0  0  0  0  0  0  0  0
   15.5638   16.3213  -55.7589 H   0  0  0  0  0  0  0  0  0  0  0  0
   13.5511   17.6756  -59.1548 H   0  0  0  0  0  0  0  0  0  0  0  0
  1  2  2  0
  1  3  1  0
  3  5  1  0
  3  4  1  0
  5  6  2  0
  6  7  1  0
  6 32  1  0
  7  8  1  0
  7  9  2  0
  9 10  1  0
  9 33  1  0
 10 12  1  0
 10 11  2  0
 11  5  1  0
 11 34  1  0
 12 14  1  0
 12 13  1  0
 14 15  1  0
 14 16  2  0
 14 17  2  0
 15 35  1  0
 15 36  1  0
 15 37  1  0
 18 19  1  0
 18 38  1  0
 18 39  1  0
 18 40  1  0
 19 20  1  0
 20 21  1  0
 21 22  2  0
 21  1  1  0
 22 23  1  0
 22 41  1  0
 23 24  1  0
 23 19  2  0
 24 25  2  0
 25 26  1  0
 26 27  2  0
 26 42  1  0
 27 28  1  0
 27 29  1  0
 29 30  2  0
 29 43  1  0
 30 31  1  0
 30 24  1  0
M  END
>  <minimizedAffinity>  (7) 
-8.55849

>  <mol_id>  (7) 
46584

>  <source_index>  (7) 
6

>  <layer>  (7) 
L4

>  <uniprot>  (7) 
Q08211

>  <paff>  (7) 
7.6253000000000002

>  <smiles>  (7) 
Cc1sc(cc1-c1ncc(F)cc1F)C(=O)Nc1cc(Cl)cc(NS(C)(=O)=O)c1

$$$$
L4:Q08211:64036
     RDKit          3D

 37 39  0  0  0  0  0  0  0  0999 V2000
   16.8627   12.5058  -62.0285 N   0  0  0  0  0  0  0  0  0  0  0  0
   17.9200   11.7748  -62.5567 C   0  0  0  0  0  0  0  0  0  0  0  0
   18.4717   10.8524  -61.9640 O   0  0  0  0  0  0  0  0  0  0  0  0
   16.4095   13.1603  -62.6505 H   0  0  0  0  0  0  0  0  0  0  0  0
   18.3062   12.1831  -63.9089 C   0  0  0  0  0  0  0  0  0  0  0  0
   17.7832   13.1596  -64.7361 C   0  0  0  0  0  0  0  0  0  0  0  0
   18.4476   13.2486  -66.0079 C   0  0  0  0  0  0  0  0  0  0  0  0
   18.2147   14.0962  -67.1137 C   0  0  0  0  0  0  0  0  0  0  0  0
   17.2224   14.9987  -67.0628 F   0  0  0  0  0  0  0  0  0  0  0  0
   19.0018   14.0019  -68.2586 C   0  0  0  0  0  0  0  0  0  0  0  0
   18.7670   14.8109  -69.3009 F   0  0  0  0  0  0  0  0  0  0  0  0
   20.0298   13.0775  -68.3376 C   0  0  0  0  0  0  0  0  0  0  0  0
   20.2888   12.2247  -67.2609 C   0  0  0  0  0  0  0  0  0  0  0  0
   19.4883   12.3232  -66.1028 C   0  0  0  0  0  0  0  0  0  0  0  0
   19.6243   11.3910  -64.6656 S   0  0  0  0  0  0  0  0  0  0  0  0
   15.4608   10.9289  -58.9972 C   0  0  0  0  0  0  0  0  0  0  0  0
   15.1307   12.0210  -58.2046 C   0  0  0  0  0  0  0  0  0  0  0  0
   15.4000   13.3028  -58.6746 C   0  0  0  0  0  0  0  0  0  0  0  0
   15.0003   14.6610  -57.6936 Cl  0  0  0  0  0  0  0  0  0  0  0  0
   15.9828   13.5011  -59.9294 C   0  0  0  0  0  0  0  0  0  0  0  0
   16.3015   12.4057  -60.7354 C   0  0  0  0  0  0  0  0  0  0  0  0
   16.0332   11.1147  -60.2586 C   0  0  0  0  0  0  0  0  0  0  0  0
   15.1537    9.6158  -58.5327 N   0  0  0  0  0  0  0  0  0  0  0  0
   15.9609    9.0200  -58.3340 H   0  0  0  0  0  0  0  0  0  0  0  0
   13.5063    7.5096  -58.2458 C   0  0  0  0  0  0  0  0  0  0  0  0
   14.0320    8.7224  -59.4372 S   0  0  0  0  0  0  0  0  0  0  0  0
   12.9119    9.5620  -59.7977 O   0  0  0  0  0  0  0  0  0  0  0  0
   14.8163    8.0433  -60.4465 O   0  0  0  0  0  0  0  0  0  0  0  0
   16.9926   13.7658  -64.4668 H   0  0  0  0  0  0  0  0  0  0  0  0
   20.6052   13.0182  -69.1922 H   0  0  0  0  0  0  0  0  0  0  0  0
   21.0536   11.5337  -67.3120 H   0  0  0  0  0  0  0  0  0  0  0  0
   14.6921   11.8837  -57.2806 H   0  0  0  0  0  0  0  0  0  0  0  0
   16.1780   14.4587  -60.2610 H   0  0  0  0  0  0  0  0  0  0  0  0
   16.2601   10.2954  -60.8436 H   0  0  0  0  0  0  0  0  0  0  0  0
   12.7801    6.8627  -58.6920 H   0  0  0  0  0  0  0  0  0  0  0  0
   13.0729    8.0036  -57.4014 H   0  0  0  0  0  0  0  0  0  0  0  0
   14.3498    6.9332  -57.9276 H   0  0  0  0  0  0  0  0  0  0  0  0
  1  2  1  0
  1  4  1  0
  2  3  2  0
  2  5  1  0
  5  6  2  0
  6  7  1  0
  6 29  1  0
  7  8  2  0
  8  9  1  0
  8 10  1  0
 10 11  1  0
 10 12  2  0
 12 13  1  0
 12 30  1  0
 13 14  2  0
 13 31  1  0
 14 15  1  0
 14  7  1  0
 15  5  1  0
 16 17  2  0
 17 18  1  0
 17 32  1  0
 18 19  1  0
 18 20  2  0
 20 21  1  0
 20 33  1  0
 21  1  1  0
 21 22  2  0
 22 16  1  0
 22 34  1  0
 23 16  1  0
 23 24  1  0
 25 26  1  0
 25 35  1  0
 25 36  1  0
 25 37  1  0
 26 27  2  0
 26 28  2  0
 26 23  1  0
M  END
>  <minimizedAffinity>  (8) 
-8.52447

>  <mol_id>  (8) 
64036

>  <source_index>  (8) 
7

>  <layer>  (8) 
L4

>  <uniprot>  (8) 
Q08211

>  <paff>  (8) 
6.7851999999999997

>  <smiles>  (8) 
CS(=O)(=O)Nc1cc(Cl)cc(NC(=O)c2cc3c(F)c(F)ccc3s2)c1

$$$$
L4:Q08211:115743
     RDKit          3D

 54 57  0  0  0  0  0  0  0  0999 V2000
   16.3440   12.2963  -60.5555 C   0  0  0  0  0  0  0  0  0  0  0  0
   15.8229   11.5208  -59.5357 C   0  0  0  0  0  0  0  0  0  0  0  0
   14.8236   12.1945  -58.7578 C   0  0  0  0  0  0  0  0  0  0  0  0
   14.6599   13.4930  -59.1979 C   0  0  0  0  0  0  0  0  0  0  0  0
   15.6392   13.8592  -60.5503 S   0  0  0  0  0  0  0  0  0  0  0  0
   14.1153   11.6447  -57.5991 C   0  0  0  0  0  0  0  0  0  0  0  0
   14.8051   11.7844  -56.4338 N   0  0  0  0  0  0  0  0  0  0  0  0
   14.2369   11.2970  -55.3141 C   0  0  0  0  0  0  0  0  0  0  0  0
   13.0074   10.6671  -55.2948 C   0  0  0  0  0  0  0  0  0  0  0  0
   12.3146   10.5230  -56.4958 C   0  0  0  0  0  0  0  0  0  0  0  0
   12.8608   11.0160  -57.6831 C   0  0  0  0  0  0  0  0  0  0  0  0
   12.2823   10.8902  -58.9171 O   0  0  0  0  0  0  0  0  0  0  0  0
   11.4093    9.7884  -59.1772 C   0  0  0  0  0  0  0  0  0  0  0  0
   11.9279    8.8452  -60.2390 C   0  0  0  0  0  0  0  0  0  0  0  0
   13.2787    8.4655  -60.2354 C   0  0  0  0  0  0  0  0  0  0  0  0
   13.7683    7.5751  -61.1928 C   0  0  0  0  0  0  0  0  0  0  0  0
   12.9123    7.0463  -62.1566 C   0  0  0  0  0  0  0  0  0  0  0  0
   11.5653    7.4023  -62.1608 C   0  0  0  0  0  0  0  0  0  0  0  0
   11.0738    8.2914  -61.2036 C   0  0  0  0  0  0  0  0  0  0  0  0
   17.2146   12.4626  -62.7843 N   0  0  0  0  0  0  0  0  0  0  0  0
   17.3592   11.8907  -61.5286 C   0  0  0  0  0  0  0  0  0  0  0  0
   18.2565   11.1094  -61.2278 O   0  0  0  0  0  0  0  0  0  0  0  0
   16.4291   13.0962  -62.8703 H   0  0  0  0  0  0  0  0  0  0  0  0
   18.9872   13.2933  -65.9193 C   0  0  0  0  0  0  0  0  0  0  0  0
   19.5585   12.0750  -66.2717 C   0  0  0  0  0  0  0  0  0  0  0  0
   19.3683   10.9673  -65.4485 C   0  0  0  0  0  0  0  0  0  0  0  0
   20.1517    9.3109  -65.9229 Br  0  0  0  0  0  0  0  0  0  0  0  0
   18.6051   11.0598  -64.2821 C   0  0  0  0  0  0  0  0  0  0  0  0
   18.0111   12.2725  -63.9320 C   0  0  0  0  0  0  0  0  0  0  0  0
   18.2041   13.3862  -64.7631 C   0  0  0  0  0  0  0  0  0  0  0  0
   19.1454   14.4597  -66.7226 N   0  0  0  0  0  0  0  0  0  0  0  0
   20.0792   14.6883  -67.0626 H   0  0  0  0  0  0  0  0  0  0  0  0
   17.8489   13.5663  -68.9188 C   0  0  0  0  0  0  0  0  0  0  0  0
   17.9415   14.9454  -67.7931 S   0  0  0  0  0  0  0  0  0  0  0  0
   16.6801   15.0620  -67.0979 O   0  0  0  0  0  0  0  0  0  0  0  0
   18.5040   16.0628  -68.5220 O   0  0  0  0  0  0  0  0  0  0  0  0
   16.1240   10.5509  -59.3521 H   0  0  0  0  0  0  0  0  0  0  0  0
   14.0161   14.1691  -58.7581 H   0  0  0  0  0  0  0  0  0  0  0  0
   14.7472   11.3995  -54.4230 H   0  0  0  0  0  0  0  0  0  0  0  0
   12.6108   10.3112  -54.4110 H   0  0  0  0  0  0  0  0  0  0  0  0
   11.3968   10.0514  -56.5077 H   0  0  0  0  0  0  0  0  0  0  0  0
   10.4643   10.1737  -59.4988 H   0  0  0  0  0  0  0  0  0  0  0  0
   11.3313    9.2277  -58.2692 H   0  0  0  0  0  0  0  0  0  0  0  0
   13.9157    8.8476  -59.5190 H   0  0  0  0  0  0  0  0  0  0  0  0
   14.7652    7.3083  -61.1866 H   0  0  0  0  0  0  0  0  0  0  0  0
   13.2757    6.3915  -62.8667 H   0  0  0  0  0  0  0  0  0  0  0  0
   10.9302    7.0082  -62.8724 H   0  0  0  0  0  0  0  0  0  0  0  0
   10.0731    8.5434  -61.2058 H   0  0  0  0  0  0  0  0  0  0  0  0
   20.1180   11.9924  -67.1349 H   0  0  0  0  0  0  0  0  0  0  0  0
   18.4808   10.2312  -63.6796 H   0  0  0  0  0  0  0  0  0  0  0  0
   17.7625   14.2863  -64.5185 H   0  0  0  0  0  0  0  0  0  0  0  0
   17.1028   13.7609  -69.6606 H   0  0  0  0  0  0  0  0  0  0  0  0
   17.5907   12.6804  -68.3771 H   0  0  0  0  0  0  0  0  0  0  0  0
   18.7976   13.4298  -69.3944 H   0  0  0  0  0  0  0  0  0  0  0  0
  1  2  2  0
  2  3  1  0
  2 37  1  0
  3  4  2  0
  3  6  1  0
  4  5  1  0
  4 38  1  0
  5  1  1  0
  6  7  2  0
  7  8  1  0
  8  9  2  0
  8 39  1  0
  9 10  1  0
  9 40  1  0
 10 11  2  0
 10 41  1  0
 11 12  1  0
 11  6  1  0
 12 13  1  0
 13 14  1  0
 13 42  1  0
 13 43  1  0
 14 15  2  0
 15 16  1  0
 15 44  1  0
 16 17  2  0
 16 45  1  0
 17 18  1  0
 17 46  1  0
 18 19  2  0
 18 47  1  0
 19 14  1  0
 19 48  1  0
 20 21  1  0
 20 23  1  0
 21 22  2  0
 21  1  1  0
 24 25  2  0
 25 26  1  0
 25 49  1  0
 26 27  1  0
 26 28  2  0
 28 29  1  0
 28 50  1  0
 29 20  1  0
 29 30  2  0
 30 24  1  0
 30 51  1  0
 31 24  1  0
 31 32  1  0
 33 34  1  0
 33 52  1  0
 33 53  1  0
 33 54  1  0
 34 35  2  0
 34 36  2  0
 34 31  1  0
M  END
>  <minimizedAffinity>  (9) 
-7.75556

>  <mol_id>  (9) 
115743

>  <source_index>  (9) 
8

>  <layer>  (9) 
L4

>  <uniprot>  (9) 
Q08211

>  <paff>  (9) 
7.4168000000000003

>  <smiles>  (9) 
CS(=O)(=O)Nc1cc(Br)cc(NC(=O)c2cc(cs2)-c2ncccc2OCc2ccccc2)c1

$$$$
L4:Q08211:134241
     RDKit          3D

 56 60  0  0  0  0  0  0  0  0999 V2000
   16.6581   11.8940  -60.9647 C   0  0  0  0  0  0  0  0  0  0  0  0
   16.3264   11.2163  -59.7765 C   0  0  0  0  0  0  0  0  0  0  0  0
   15.7618   12.0033  -58.8631 N   0  0  0  0  0  0  0  0  0  0  0  0
   15.7308   13.2390  -59.4343 N   0  0  0  0  0  0  0  0  0  0  0  0
   16.2677   13.1968  -60.7049 C   0  0  0  0  0  0  0  0  0  0  0  0
   15.1945   14.3705  -58.7331 C   0  0  0  0  0  0  0  0  0  0  0  0
   15.0662   14.3451  -57.3493 C   0  0  0  0  0  0  0  0  0  0  0  0
   14.5317   15.4637  -56.6930 C   0  0  0  0  0  0  0  0  0  0  0  0
   14.1174   16.5986  -57.3978 C   0  0  0  0  0  0  0  0  0  0  0  0
   14.3120   16.5175  -58.7816 C   0  0  0  0  0  0  0  0  0  0  0  0
   14.8213   15.4549  -59.4546 N   0  0  0  0  0  0  0  0  0  0  0  0
   13.5866   17.7410  -56.7833 N   0  0  0  0  0  0  0  0  0  0  0  0
   12.9547   18.7840  -57.6142 C   0  0  0  0  0  0  0  0  0  0  0  0
   12.1101   19.7310  -56.7553 C   0  0  0  0  0  0  0  0  0  0  0  0
   12.8883   20.2612  -55.6592 N   0  0  0  0  0  0  0  0  0  0  0  0
   12.7341   21.4491  -55.0129 C   0  0  0  0  0  0  0  0  0  0  0  0
   13.7246   21.4519  -54.0577 C   0  0  0  0  0  0  0  0  0  0  0  0
   14.4725   20.3015  -54.1220 N   0  0  0  0  0  0  0  0  0  0  0  0
   13.9455   19.5941  -55.1010 C   0  0  0  0  0  0  0  0  0  0  0  0
   14.3740   18.2540  -55.6238 C   0  0  0  0  0  0  0  0  0  0  0  0
   18.0710   12.3826  -62.8309 N   0  0  0  0  0  0  0  0  0  0  0  0
   17.2707   11.4403  -62.2090 C   0  0  0  0  0  0  0  0  0  0  0  0
   17.0724   10.3000  -62.6120 O   0  0  0  0  0  0  0  0  0  0  0  0
   18.1873   13.2681  -62.3608 H   0  0  0  0  0  0  0  0  0  0  0  0
   19.4766   13.3279  -66.1134 C   0  0  0  0  0  0  0  0  0  0  0  0
   20.0747   12.1508  -66.5442 C   0  0  0  0  0  0  0  0  0  0  0  0
   20.0298   11.0291  -65.7214 C   0  0  0  0  0  0  0  0  0  0  0  0
   20.7792    9.5696  -66.2442 Cl  0  0  0  0  0  0  0  0  0  0  0  0
   19.3836   11.0714  -64.4829 C   0  0  0  0  0  0  0  0  0  0  0  0
   18.7664   12.2490  -64.0541 C   0  0  0  0  0  0  0  0  0  0  0  0
   18.8168   13.3791  -64.8826 C   0  0  0  0  0  0  0  0  0  0  0  0
   19.4951   14.4697  -66.9681 N   0  0  0  0  0  0  0  0  0  0  0  0
   19.8845   15.3202  -66.5554 H   0  0  0  0  0  0  0  0  0  0  0  0
   17.8344   13.4603  -68.8280 C   0  0  0  0  0  0  0  0  0  0  0  0
   18.0474   14.8655  -67.7567 S   0  0  0  0  0  0  0  0  0  0  0  0
   16.9648   14.9115  -66.8003 O   0  0  0  0  0  0  0  0  0  0  0  0
   18.3689   16.0092  -68.5833 O   0  0  0  0  0  0  0  0  0  0  0  0
   16.5031   10.2104  -59.6282 H   0  0  0  0  0  0  0  0  0  0  0  0
   16.3619   13.9972  -61.3495 H   0  0  0  0  0  0  0  0  0  0  0  0
   15.3602   13.5145  -56.8120 H   0  0  0  0  0  0  0  0  0  0  0  0
   14.4420   15.4489  -55.6650 H   0  0  0  0  0  0  0  0  0  0  0  0
   14.0434   17.3417  -59.3416 H   0  0  0  0  0  0  0  0  0  0  0  0
   12.3256   18.3175  -58.3433 H   0  0  0  0  0  0  0  0  0  0  0  0
   13.7246   19.3522  -58.0931 H   0  0  0  0  0  0  0  0  0  0  0  0
   11.2714   19.1947  -56.3629 H   0  0  0  0  0  0  0  0  0  0  0  0
   11.7792   20.5448  -57.3661 H   0  0  0  0  0  0  0  0  0  0  0  0
   12.0322   22.1827  -55.1977 H   0  0  0  0  0  0  0  0  0  0  0  0
   13.8843   22.2163  -53.3830 H   0  0  0  0  0  0  0  0  0  0  0  0
   14.2887   17.5454  -54.8267 H   0  0  0  0  0  0  0  0  0  0  0  0
   15.3754   18.3809  -55.9787 H   0  0  0  0  0  0  0  0  0  0  0  0
   20.5458   12.1084  -67.4614 H   0  0  0  0  0  0  0  0  0  0  0  0
   19.3623   10.2312  -63.8841 H   0  0  0  0  0  0  0  0  0  0  0  0
   18.3631   14.2556  -64.5811 H   0  0  0  0  0  0  0  0  0  0  0  0
   16.9373   13.5797  -69.3988 H   0  0  0  0  0  0  0  0  0  0  0  0
   17.7664   12.5697  -68.2388 H   0  0  0  0  0  0  0  0  0  0  0  0
   18.6715   13.3867  -69.4904 H   0  0  0  0  0  0  0  0  0  0  0  0
  1  2  1  0
  2  3  2  0
  2 38  1  0
  3  4  1  0
  4  5  1  0
  4  6  1  0
  5  1  2  0
  5 39  1  0
  6  7  2  0
  7  8  1  0
  7 40  1  0
  8  9  2  0
  8 41  1  0
  9 10  1  0
  9 12  1  0
 10 11  2  0
 10 42  1  0
 11  6  1  0
 12 13  1  0
 13 14  1  0
 13 43  1  0
 13 44  1  0
 14 15  1  0
 14 45  1  0
 14 46  1  0
 15 16  1  0
 16 17  2  0
 16 47  1  0
 17 18  1  0
 17 48  1  0
 18 19  2  0
 19 20  1  0
 19 15  1  0
 20 12  1  0
 20 49  1  0
 20 50  1  0
 21 22  1  0
 21 24  1  0
 22 23  2  0
 22  1  1  0
 25 26  2  0
 26 27  1  0
 26 51  1  0
 27 28  1  0
 27 29  2  0
 29 30  1  0
 29 52  1  0
 30 21  1  0
 30 31  2  0
 31 25  1  0
 31 53  1  0
 32 25  1  0
 32 33  1  0
 34 35  1  0
 34 54  1  0
 34 55  1  0
 34 56  1  0
 35 36  2  0
 35 37  2  0
 35 32  1  0
M  END
>  <minimizedAffinity>  (10) 
-8.20557

>  <mol_id>  (10) 
134241

>  <source_index>  (10) 
9

>  <layer>  (10) 
L4

>  <uniprot>  (10) 
Q08211

>  <paff>  (10) 
7.7824999999999998

>  <smiles>  (10) 
CS(=O)(=O)Nc1cc(Cl)cc(NC(=O)c2cnn(c2)-c2ccc(cn2)N2CCn3ccnc3C2)c1

$$$$
