L4:P43341:5828
     RDKit          3D

 61 64  0  0  0  0  0  0  0  0999 V2000
   11.0654   -5.9148    3.8476 S   0  0  0  0  0  0  0  0  0  0  0  0
    9.8019   -5.7243    3.1669 O   0  0  0  0  0  0  0  0  0  0  0  0
   11.1474   -6.6580    5.0867 O   0  0  0  0  0  0  0  0  0  0  0  0
   13.9410   -7.7668    0.7816 C   0  0  0  0  0  0  0  0  0  0  0  0
   13.8962   -8.2386    2.1022 C   0  0  0  0  0  0  0  0  0  0  0  0
   13.0242   -7.6814    3.0457 C   0  0  0  0  0  0  0  0  0  0  0  0
   12.1931   -6.6268    2.6758 C   0  0  0  0  0  0  0  0  0  0  0  0
   12.2085   -6.1443    1.3684 C   0  0  0  0  0  0  0  0  0  0  0  0
   13.0764   -6.7154    0.4304 C   0  0  0  0  0  0  0  0  0  0  0  0
   16.7017   -8.7554   -1.4472 C   0  0  1  0  0  0  0  0  0  0  0  0
   16.2403   -8.3122   -0.0722 C   0  0  0  0  0  0  0  0  0  0  0  0
   14.8129   -8.3350   -0.1824 N   0  0  0  0  0  0  0  0  0  0  0  0
   14.4606   -9.1283   -1.2656 C   0  0  0  0  0  0  0  0  0  0  0  0
   13.3526   -9.5019   -1.6150 O   0  0  0  0  0  0  0  0  0  0  0  0
   15.5921   -9.5165   -1.9380 O   0  0  0  0  0  0  0  0  0  0  0  0
   16.9958   -7.5515   -2.3721 C   0  0  0  0  0  0  0  0  0  0  0  0
   18.2233   -5.5000   -2.9028 C   0  0  0  0  0  0  0  0  0  0  0  0
   18.1025   -6.6482   -2.0069 N   0  0  0  0  0  0  0  0  0  0  0  0
   19.3822   -7.3337   -1.8697 C   0  0  0  0  0  0  0  0  0  0  0  0
   11.7452   -4.3755    4.1320 N   0  0  0  0  0  0  0  0  0  0  0  0
   13.1594   -4.2764    3.6351 C   0  0  0  0  0  0  0  0  0  0  0  0
   13.6765   -2.8257    3.6219 C   0  0  0  0  0  0  0  0  0  0  0  0
   12.8171   -1.9371    2.8167 N   0  0  0  0  0  0  0  0  0  0  0  0
   11.4785   -2.4629    2.4910 C   0  0  0  0  0  0  0  0  0  0  0  0
   10.8947   -3.2086    3.7033 C   0  0  0  0  0  0  0  0  0  0  0  0
   13.4064   -1.1429    1.8373 C   0  0  0  0  0  0  0  0  0  0  0  0
   12.6265   -0.3250    1.0178 C   0  0  0  0  0  0  0  0  0  0  0  0
   13.2201    0.4521    0.0127 C   0  0  0  0  0  0  0  0  0  0  0  0
   14.6014    0.3798   -0.1506 C   0  0  0  0  0  0  0  0  0  0  0  0
   15.2987   -0.4628    0.6885 C   0  0  0  0  0  0  0  0  0  0  0  0
   17.0001   -0.6246    0.5545 Cl  0  0  0  0  0  0  0  0  0  0  0  0
   14.7392   -1.2157    1.6546 N   0  0  0  0  0  0  0  0  0  0  0  0
   12.3961    1.3241   -0.8901 C   0  0  0  0  0  0  0  0  0  0  0  0
   11.2291    0.7458   -1.2884 F   0  0  0  0  0  0  0  0  0  0  0  0
   12.0496    2.4997   -0.2990 F   0  0  0  0  0  0  0  0  0  0  0  0
   13.0589    1.6584   -2.0297 F   0  0  0  0  0  0  0  0  0  0  0  0
   14.5186   -9.0121    2.3840 H   0  0  0  0  0  0  0  0  0  0  0  0
   12.9976   -8.0500    4.0093 H   0  0  0  0  0  0  0  0  0  0  0  0
   11.5836   -5.3704    1.0934 H   0  0  0  0  0  0  0  0  0  0  0  0
   13.0817   -6.3577   -0.5376 H   0  0  0  0  0  0  0  0  0  0  0  0
   17.6159   -9.3102   -1.4121 H   0  0  0  0  0  0  0  0  0  0  0  0
   16.5921   -7.3267    0.1513 H   0  0  0  0  0  0  0  0  0  0  0  0
   16.6102   -8.9351    0.7153 H   0  0  0  0  0  0  0  0  0  0  0  0
   17.2131   -7.9432   -3.3438 H   0  0  0  0  0  0  0  0  0  0  0  0
   16.1199   -6.9411   -2.3006 H   0  0  0  0  0  0  0  0  0  0  0  0
   19.0402   -4.8854   -2.5868 H   0  0  0  0  0  0  0  0  0  0  0  0
   17.3177   -4.9306   -2.8770 H   0  0  0  0  0  0  0  0  0  0  0  0
   18.4004   -5.8433   -3.9006 H   0  0  0  0  0  0  0  0  0  0  0  0
   20.1395   -6.6257   -1.6050 H   0  0  0  0  0  0  0  0  0  0  0  0
   19.6385   -7.7997   -2.7981 H   0  0  0  0  0  0  0  0  0  0  0  0
   19.3076   -8.0787   -1.1053 H   0  0  0  0  0  0  0  0  0  0  0  0
   13.2018   -4.6654    2.6392 H   0  0  0  0  0  0  0  0  0  0  0  0
   13.7797   -4.8379    4.3020 H   0  0  0  0  0  0  0  0  0  0  0  0
   14.6644   -2.8154    3.2110 H   0  0  0  0  0  0  0  0  0  0  0  0
   13.6710   -2.4650    4.6292 H   0  0  0  0  0  0  0  0  0  0  0  0
   11.5547   -3.1372    1.6637 H   0  0  0  0  0  0  0  0  0  0  0  0
   10.8338   -1.6474    2.2375 H   0  0  0  0  0  0  0  0  0  0  0  0
    9.9211   -3.5706    3.4463 H   0  0  0  0  0  0  0  0  0  0  0  0
   10.8571   -2.5185    4.5201 H   0  0  0  0  0  0  0  0  0  0  0  0
   11.6039   -0.2920    1.1529 H   0  0  0  0  0  0  0  0  0  0  0  0
   15.0848    0.9363   -0.8728 H   0  0  0  0  0  0  0  0  0  0  0  0
  1  2  2  0
  1  3  2  0
  1 20  1  0
  4  5  2  0
  5  6  1  0
  5 37  1  0
  6  7  2  0
  6 38  1  0
  7  1  1  0
  7  8  1  0
  8  9  2  0
  8 39  1  0
  9  4  1  0
  9 40  1  0
 10 11  1  0
 10 41  1  1
 11 12  1  0
 11 42  1  0
 11 43  1  0
 12  4  1  0
 12 13  1  0
 13 14  2  0
 13 15  1  0
 15 10  1  0
 16 10  1  0
 16 44  1  0
 16 45  1  0
 17 18  1  0
 17 46  1  0
 17 47  1  0
 17 48  1  0
 18 19  1  0
 18 16  1  0
 19 49  1  0
 19 50  1  0
 19 51  1  0
 20 21  1  0
 21 22  1  0
 21 52  1  0
 21 53  1  0
 22 23  1  0
 22 54  1  0
 22 55  1  0
 23 26  1  0
 23 24  1  0
 24 25  1  0
 24 56  1  0
 24 57  1  0
 25 20  1  0
 25 58  1  0
 25 59  1  0
 26 27  2  0
 27 28  1  0
 27 60  1  0
 28 33  1  0
 28 29  2  0
 29 30  1  0
 29 61  1  0
 30 31  1  0
 30 32  2  0
 32 26  1  0
 33 34  1  0
 33 35  1  0
 33 36  1  0
M  END
>  <minimizedAffinity>  (1) 
-9.56637

>  <mol_id>  (1) 
5828

>  <source_index>  (1) 
0

>  <layer>  (1) 
L4

>  <uniprot>  (1) 
P43341

>  <paff>  (1) 
8.1548999999999996

>  <smiles>  (1) 
CN(C)CC1CN(c2ccc(S(=O)(=O)N3CCN(c4cc(C(F)(F)F)cc(Cl)n4)CC3)cc2)C(=O)O1

$$$$
L4:P43341:40675
     RDKit          3D

 93 98  0  0  0  0  0  0  0  0999 V2000
   19.0961   -6.5535   -3.4958 C   0  0  0  0  0  0  0  0  0  0  0  0
   17.8618   -7.0129   -3.0272 C   0  0  0  0  0  0  0  0  0  0  0  0
   17.5456   -8.3822   -3.0570 C   0  0  0  0  0  0  0  0  0  0  0  0
   18.4763   -9.2643   -3.6006 C   0  0  0  0  0  0  0  0  0  0  0  0
   19.6576   -8.7343   -4.0645 C   0  0  0  0  0  0  0  0  0  0  0  0
   20.8674   -9.7422   -4.7404 Cl  0  0  0  0  0  0  0  0  0  0  0  0
   19.9787   -7.4266   -4.0156 N   0  0  0  0  0  0  0  0  0  0  0  0
   19.0036   -2.5405   -2.2654 N   0  0  0  0  0  0  0  0  0  0  0  0
   19.3959   -3.7472   -1.4739 C   0  0  0  0  0  0  0  0  0  0  0  0
   20.2232   -4.7328   -2.3162 C   0  0  0  0  0  0  0  0  0  0  0  0
   19.4417   -5.2072   -3.4783 N   0  0  0  0  0  0  0  0  0  0  0  0
   18.5399   -4.2057   -4.0826 C   0  0  0  0  0  0  0  0  0  0  0  0
   18.9723   -2.7632   -3.7432 C   0  0  0  0  0  0  0  0  0  0  0  0
   19.5428   -1.0276   -1.7288 S   0  0  0  0  0  0  0  0  0  0  0  0
   20.1018   -1.2069   -0.4063 O   0  0  0  0  0  0  0  0  0  0  0  0
   20.3145   -0.4224   -2.7945 O   0  0  0  0  0  0  0  0  0  0  0  0
   15.6391    1.3802   -1.2967 C   0  0  0  0  0  0  0  0  0  0  0  0
   15.9928    0.3920   -0.3648 C   0  0  0  0  0  0  0  0  0  0  0  0
   17.1690   -0.3521   -0.5030 C   0  0  0  0  0  0  0  0  0  0  0  0
   18.0395   -0.0846   -1.5598 C   0  0  0  0  0  0  0  0  0  0  0  0
   17.7040    0.8794   -2.5128 C   0  0  0  0  0  0  0  0  0  0  0  0
   16.5122    1.6040   -2.3772 C   0  0  0  0  0  0  0  0  0  0  0  0
   12.5332    5.2471   -0.9634 N   0  0  0  0  0  0  0  0  0  0  0  0
   12.9239    3.9039   -1.3878 C   0  0  2  0  0  0  0  0  0  0  0  0
   12.2305    2.7837   -0.6207 C   0  0  0  0  0  0  0  0  0  0  0  0
   13.1614    1.6110   -0.8419 C   0  0  0  0  0  0  0  0  0  0  0  0
   12.8091    0.4479   -0.7002 O   0  0  0  0  0  0  0  0  0  0  0  0
   14.4370    2.1238   -1.1394 N   0  0  0  0  0  0  0  0  0  0  0  0
   14.4045    3.5741   -1.1845 C   0  0  0  0  0  0  0  0  0  0  0  0
   11.5464    5.4013   -1.1683 H   0  0  0  0  0  0  0  0  0  0  0  0
   12.6238    5.3444    0.0486 H   0  0  0  0  0  0  0  0  0  0  0  0
   16.2273   -8.8921   -2.5197 C   0  0  0  0  0  0  0  0  0  0  0  0
   15.2941   -8.9485   -3.5216 F   0  0  0  0  0  0  0  0  0  0  0  0
   16.3359  -10.1727   -2.0542 F   0  0  0  0  0  0  0  0  0  0  0  0
   15.6406   -8.0112   -1.3883 C   0  0  1  0  0  0  0  0  0  0  0  0
   14.1102   -7.8546   -1.5465 C   0  0  0  0  0  0  0  0  0  0  0  0
   13.3245   -8.8397   -0.6810 C   0  0  0  0  0  0  0  0  0  0  0  0
   13.6152   -8.6573    0.8203 C   0  0  1  0  0  0  0  0  0  0  0  0
   15.0093   -8.0595    1.0721 C   0  0  0  0  0  0  0  0  0  0  0  0
   16.0087   -8.5248    0.0185 C   0  0  0  0  0  0  0  0  0  0  0  0
   12.5434   -7.8240    1.5244 C   0  0  0  0  0  0  0  0  0  0  0  0
   11.8451   -8.2369    2.4453 O   0  0  0  0  0  0  0  0  0  0  0  0
   12.4413   -6.5365    1.0213 N   0  0  0  0  0  0  0  0  0  0  0  0
   13.2282   -6.1468    0.4994 H   0  0  0  0  0  0  0  0  0  0  0  0
   11.7767   -5.5854    1.8236 N   0  0  0  0  0  0  0  0  0  0  0  0
   12.3873   -4.3518    1.9258 C   0  0  0  0  0  0  0  0  0  0  0  0
   13.3103   -4.0263    1.1783 O   0  0  0  0  0  0  0  0  0  0  0  0
   11.2708   -5.9494    2.6393 H   0  0  0  0  0  0  0  0  0  0  0  0
   11.8936   -3.4391    3.0437 C   0  0  0  0  0  0  0  0  0  0  0  0
   13.0103   -2.5646    3.6358 C   0  0  0  0  0  0  0  0  0  0  0  0
   12.9588   -1.1118    3.1528 C   0  0  0  0  0  0  0  0  0  0  0  0
   12.5056   -1.0629    1.7648 N   0  0  0  0  0  0  0  0  0  0  0  0
   11.0900   -1.4384    1.6599 C   0  0  0  0  0  0  0  0  0  0  0  0
   10.6969   -2.6049    2.5785 C   0  0  0  0  0  0  0  0  0  0  0  0
   12.6194   -0.1064    1.4063 H   0  0  0  0  0  0  0  0  0  0  0  0
   17.1747   -6.3388   -2.6550 H   0  0  0  0  0  0  0  0  0  0  0  0
   18.2867  -10.2774   -3.6533 H   0  0  0  0  0  0  0  0  0  0  0  0
   18.5104   -4.2410   -1.1319 H   0  0  0  0  0  0  0  0  0  0  0  0
   19.9970   -3.4255   -0.6492 H   0  0  0  0  0  0  0  0  0  0  0  0
   20.4957   -5.5712   -1.7097 H   0  0  0  0  0  0  0  0  0  0  0  0
   21.0998   -4.2323   -2.6710 H   0  0  0  0  0  0  0  0  0  0  0  0
   17.5484   -4.3656   -3.7135 H   0  0  0  0  0  0  0  0  0  0  0  0
   18.5792   -4.3224   -5.1455 H   0  0  0  0  0  0  0  0  0  0  0  0
   18.2788   -2.0782   -4.1845 H   0  0  0  0  0  0  0  0  0  0  0  0
   19.9574   -2.6054   -4.1300 H   0  0  0  0  0  0  0  0  0  0  0  0
   15.3719    0.2106    0.4393 H   0  0  0  0  0  0  0  0  0  0  0  0
   17.3924   -1.0972    0.1752 H   0  0  0  0  0  0  0  0  0  0  0  0
   18.3308    1.0574   -3.3131 H   0  0  0  0  0  0  0  0  0  0  0  0
   16.2701    2.3160   -3.0839 H   0  0  0  0  0  0  0  0  0  0  0  0
   12.6501    3.9390   -2.4216 H   0  0  0  0  0  0  0  0  0  0  0  0
   11.2577    2.5860   -1.0201 H   0  0  0  0  0  0  0  0  0  0  0  0
   12.0681    3.0108    0.4122 H   0  0  0  0  0  0  0  0  0  0  0  0
   14.9918    3.9427   -1.9994 H   0  0  0  0  0  0  0  0  0  0  0  0
   14.8095    4.0232   -0.3018 H   0  0  0  0  0  0  0  0  0  0  0  0
   16.0900   -7.0449   -1.4844 H   0  0  0  0  0  0  0  0  0  0  0  0
   13.8533   -8.0194   -2.5721 H   0  0  0  0  0  0  0  0  0  0  0  0
   13.8515   -6.8664   -1.2280 H   0  0  0  0  0  0  0  0  0  0  0  0
   13.5914   -9.8363   -0.9648 H   0  0  0  0  0  0  0  0  0  0  0  0
   12.2823   -8.6552   -0.8380 H   0  0  0  0  0  0  0  0  0  0  0  0
   13.5946   -9.6400    1.2431 H   0  0  0  0  0  0  0  0  0  0  0  0
   15.3517   -8.3677    2.0378 H   0  0  0  0  0  0  0  0  0  0  0  0
   14.9347   -6.9934    1.0201 H   0  0  0  0  0  0  0  0  0  0  0  0
   16.0230   -9.5946    0.0036 H   0  0  0  0  0  0  0  0  0  0  0  0
   16.9696   -8.1302    0.2751 H   0  0  0  0  0  0  0  0  0  0  0  0
   11.5644   -4.0707    3.8421 H   0  0  0  0  0  0  0  0  0  0  0  0
   13.9545   -2.9829    3.3557 H   0  0  0  0  0  0  0  0  0  0  0  0
   12.8754   -2.5519    4.6972 H   0  0  0  0  0  0  0  0  0  0  0  0
   13.9355   -0.6804    3.2221 H   0  0  0  0  0  0  0  0  0  0  0  0
   12.2751   -0.5619    3.7653 H   0  0  0  0  0  0  0  0  0  0  0  0
   10.8886   -1.7213    0.6478 H   0  0  0  0  0  0  0  0  0  0  0  0
   10.5152   -0.5892    1.9654 H   0  0  0  0  0  0  0  0  0  0  0  0
   10.0236   -3.2441    2.0466 H   0  0  0  0  0  0  0  0  0  0  0  0
   10.2462   -2.1824    3.4522 H   0  0  0  0  0  0  0  0  0  0  0  0
  1  2  2  0
  2  3  1  0
  2 56  1  0
  3 32  1  0
  3  4  2  0
  4  5  1  0
  4 57  1  0
  5  6  1  0
  5  7  2  0
  7  1  1  0
  8  9  1  0
  9 10  1  0
  9 58  1  0
  9 59  1  0
 10 11  1  0
 10 60  1  0
 10 61  1  0
 11  1  1  0
 11 12  1  0
 12 13  1  0
 12 62  1  0
 12 63  1  0
 13  8  1  0
 13 64  1  0
 13 65  1  0
 14 15  2  0
 14 16  2  0
 14  8  1  0
 17 18  2  0
 18 19  1  0
 18 66  1  0
 19 20  2  0
 19 67  1  0
 20 14  1  0
 20 21  1  0
 21 22  2  0
 21 68  1  0
 22 17  1  0
 22 69  1  0
 23 24  1  0
 23 30  1  0
 23 31  1  0
 24 25  1  0
 24 70  1  6
 25 26  1  0
 25 71  1  0
 25 72  1  0
 26 27  2  0
 26 28  1  0
 28 17  1  0
 28 29  1  0
 29 24  1  0
 29 73  1  0
 29 74  1  0
 32 33  1  0
 32 34  1  0
 32 35  1  0
 35 36  1  0
 35 75  1  6
 36 37  1  0
 36 76  1  0
 36 77  1  0
 37 38  1  0
 37 78  1  0
 37 79  1  0
 38 41  1  0
 38 39  1  0
 38 80  1  1
 39 40  1  0
 39 81  1  0
 39 82  1  0
 40 35  1  0
 40 83  1  0
 40 84  1  0
 41 42  2  0
 41 43  1  0
 43 45  1  0
 43 44  1  0
 45 46  1  0
 45 48  1  0
 46 47  2  0
 46 49  1  0
 49 50  1  0
 49 85  1  0
 50 51  1  0
 50 86  1  0
 50 87  1  0
 51 52  1  0
 51 88  1  0
 51 89  1  0
 52 53  1  0
 52 55  1  0
 53 54  1  0
 53 90  1  0
 53 91  1  0
 54 49  1  0
 54 92  1  0
 54 93  1  0
M  END
>  <minimizedAffinity>  (2) 
-10.23265

>  <mol_id>  (2) 
40675

>  <source_index>  (2) 
1

>  <layer>  (2) 
L4

>  <uniprot>  (2) 
P43341

>  <paff>  (2) 
8.0457999999999998

>  <smiles>  (2) 
N[C@@H]1CC(=O)N(c2ccc(S(=O)(=O)N3CCN(c4cc(C(F)(F)[C@H]5CC[C@H](C(=O)NNC(=O)C6CCNCC6)CC5)cc(Cl)n4)CC3)cc2)C1

$$$$
L4:P43341:62829
     RDKit          3D

 58 62  0  0  0  0  0  0  0  0999 V2000
   16.1382    1.7297   -0.9492 S   0  0  0  0  0  0  0  0  0  0  0  0
   17.2156    2.0538   -0.0390 O   0  0  0  0  0  0  0  0  0  0  0  0
   16.4046    1.1542   -2.2505 O   0  0  0  0  0  0  0  0  0  0  0  0
   13.2809   -1.1749    1.2087 C   0  0  0  0  0  0  0  0  0  0  0  0
   12.7955   -0.1501    0.3809 C   0  0  0  0  0  0  0  0  0  0  0  0
   13.6587    0.7412   -0.2697 C   0  0  0  0  0  0  0  0  0  0  0  0
   15.0359    0.6248   -0.0912 C   0  0  0  0  0  0  0  0  0  0  0  0
   15.5523   -0.4048    0.6970 C   0  0  0  0  0  0  0  0  0  0  0  0
   14.6780   -1.2840    1.3476 C   0  0  0  0  0  0  0  0  0  0  0  0
   12.4547   -1.3069    4.1180 O   0  0  0  0  0  0  0  0  0  0  0  0
   12.0638   -2.0598    3.2392 C   0  0  0  0  0  0  0  0  0  0  0  0
   11.1020   -3.1830    3.5273 C   0  0  0  0  0  0  0  0  0  0  0  0
   10.6586   -3.6682    2.1554 C   0  0  2  0  0  0  0  0  0  0  0  0
   10.6532   -5.1249    2.0082 N   0  0  0  0  0  0  0  0  0  0  0  0
   12.0459   -5.4915    1.7474 C   0  0  0  0  0  0  0  0  0  0  0  0
   12.5717   -4.3758    0.8562 C   0  0  0  0  0  0  0  0  0  0  0  0
   11.7152   -3.1503    1.1812 C   0  0  2  0  0  0  0  0  0  0  0  0
   12.4054   -2.0851    1.8775 N   0  0  0  0  0  0  0  0  0  0  0  0
   10.3090   -5.5883    2.8503 H   0  0  0  0  0  0  0  0  0  0  0  0
   15.2019    3.1205   -1.1759 N   0  0  0  0  0  0  0  0  0  0  0  0
   15.4763    4.2799   -0.2717 C   0  0  0  0  0  0  0  0  0  0  0  0
   14.6012    5.4938   -0.6432 C   0  0  0  0  0  0  0  0  0  0  0  0
   14.8398    5.9478   -2.0416 N   0  0  0  0  0  0  0  0  0  0  0  0
   15.3817    4.9002   -2.9389 C   0  0  0  0  0  0  0  0  0  0  0  0
   14.8405    3.5038   -2.5802 C   0  0  0  0  0  0  0  0  0  0  0  0
   13.7260    6.6292   -2.5591 C   0  0  0  0  0  0  0  0  0  0  0  0
   12.4667    6.0342   -2.4713 C   0  0  0  0  0  0  0  0  0  0  0  0
   11.3328    6.7028   -2.9553 C   0  0  0  0  0  0  0  0  0  0  0  0
   11.5019    7.9582   -3.5366 C   0  0  0  0  0  0  0  0  0  0  0  0
   12.7812    8.4733   -3.5816 C   0  0  0  0  0  0  0  0  0  0  0  0
   13.0842   10.0167   -4.2667 Cl  0  0  0  0  0  0  0  0  0  0  0  0
   13.8773    7.8498   -3.1091 N   0  0  0  0  0  0  0  0  0  0  0  0
    9.9796    6.0588   -2.8447 C   0  0  0  0  0  0  0  0  0  0  0  0
    9.1147    6.7507   -2.0542 F   0  0  0  0  0  0  0  0  0  0  0  0
   10.0407    4.8031   -2.3242 F   0  0  0  0  0  0  0  0  0  0  0  0
    9.3696    5.9354   -4.0540 F   0  0  0  0  0  0  0  0  0  0  0  0
   11.7769   -0.0508    0.2483 H   0  0  0  0  0  0  0  0  0  0  0  0
   13.2761    1.4812   -0.8789 H   0  0  0  0  0  0  0  0  0  0  0  0
   16.5730   -0.5175    0.7997 H   0  0  0  0  0  0  0  0  0  0  0  0
   15.0673   -2.0308    1.9440 H   0  0  0  0  0  0  0  0  0  0  0  0
   10.2649   -2.8284    4.0915 H   0  0  0  0  0  0  0  0  0  0  0  0
   11.5494   -3.9619    4.1087 H   0  0  0  0  0  0  0  0  0  0  0  0
    9.6592   -3.3244    1.9885 H   0  0  0  0  0  0  0  0  0  0  0  0
   12.1013   -6.4348    1.2453 H   0  0  0  0  0  0  0  0  0  0  0  0
   12.6150   -5.5964    2.6474 H   0  0  0  0  0  0  0  0  0  0  0  0
   12.4675   -4.6413   -0.1751 H   0  0  0  0  0  0  0  0  0  0  0  0
   13.6111   -4.1888    1.0280 H   0  0  0  0  0  0  0  0  0  0  0  0
   11.3639   -2.7386    0.2581 H   0  0  0  0  0  0  0  0  0  0  0  0
   16.5073    4.5532   -0.3572 H   0  0  0  0  0  0  0  0  0  0  0  0
   15.2458    3.9897    0.7321 H   0  0  0  0  0  0  0  0  0  0  0  0
   14.8265    6.2991    0.0244 H   0  0  0  0  0  0  0  0  0  0  0  0
   13.5759    5.1987   -0.5624 H   0  0  0  0  0  0  0  0  0  0  0  0
   16.4484    4.8903   -2.8551 H   0  0  0  0  0  0  0  0  0  0  0  0
   15.0765    5.1283   -3.9388 H   0  0  0  0  0  0  0  0  0  0  0  0
   15.2566    2.7853   -3.2551 H   0  0  0  0  0  0  0  0  0  0  0  0
   13.7736    3.5258   -2.6591 H   0  0  0  0  0  0  0  0  0  0  0  0
   12.3694    5.0979   -2.0483 H   0  0  0  0  0  0  0  0  0  0  0  0
   10.7000    8.4831   -3.9192 H   0  0  0  0  0  0  0  0  0  0  0  0
  1  2  2  0
  1  3  2  0
  1 20  1  0
  4  5  2  0
  5  6  1  0
  5 37  1  0
  6  7  2  0
  6 38  1  0
  7  1  1  0
  7  8  1  0
  8  9  2  0
  8 39  1  0
  9  4  1  0
  9 40  1  0
 10 11  2  0
 11 12  1  0
 12 13  1  0
 12 41  1  0
 12 42  1  0
 13 14  1  0
 13 43  1  6
 14 15  1  0
 14 19  1  0
 15 16  1  0
 15 44  1  0
 15 45  1  0
 16 17  1  0
 16 46  1  0
 16 47  1  0
 17 18  1  0
 17 13  1  0
 17 48  1  6
 18  4  1  0
 18 11  1  0
 20 21  1  0
 21 22  1  0
 21 49  1  0
 21 50  1  0
 22 23  1  0
 22 51  1  0
 22 52  1  0
 23 26  1  0
 23 24  1  0
 24 25  1  0
 24 53  1  0
 24 54  1  0
 25 20  1  0
 25 55  1  0
 25 56  1  0
 26 27  2  0
 27 28  1  0
 27 57  1  0
 28 33  1  0
 28 29  2  0
 29 30  1  0
 29 58  1  0
 30 31  1  0
 30 32  2  0
 32 26  1  0
 33 34  1  0
 33 35  1  0
 33 36  1  0
M  END
>  <minimizedAffinity>  (3) 
-8.48898

>  <mol_id>  (3) 
62829

>  <source_index>  (3) 
2

>  <layer>  (3) 
L4

>  <uniprot>  (3) 
P43341

>  <paff>  (3) 
7.4814999999999996

>  <smiles>  (3) 
O=C1CC2NCCC2N1c1ccc(S(=O)(=O)N2CCN(c3cc(C(F)(F)F)cc(Cl)n3)CC2)cc1

$$$$
L4:P43341:71794
     RDKit          3D

 90 94  0  0  0  0  0  0  0  0999 V2000
   17.5070   -9.0768   -2.5247 C   0  0  0  0  0  0  0  0  0  0  0  0
   18.5021   -9.7763   -1.8461 C   0  0  0  0  0  0  0  0  0  0  0  0
   19.7739   -9.2361   -1.8286 C   0  0  0  0  0  0  0  0  0  0  0  0
   21.0628  -10.0526   -1.0455 Cl  0  0  0  0  0  0  0  0  0  0  0  0
   20.1196   -8.0616   -2.3870 N   0  0  0  0  0  0  0  0  0  0  0  0
   19.1587   -7.3361   -2.9858 C   0  0  0  0  0  0  0  0  0  0  0  0
   17.8582   -7.8389   -3.0909 C   0  0  0  0  0  0  0  0  0  0  0  0
   19.4792   -6.0871   -3.5313 N   0  0  0  0  0  0  0  0  0  0  0  0
   20.7459   -5.5083   -3.0298 C   0  0  0  0  0  0  0  0  0  0  0  0
   20.9121   -4.0584   -3.5192 C   0  0  0  0  0  0  0  0  0  0  0  0
   19.8113   -3.1596   -3.0197 N   0  0  0  0  0  0  0  0  0  0  0  0
   18.5391   -3.9130   -2.7299 C   0  0  0  0  0  0  0  0  0  0  0  0
   18.3624   -5.1226   -3.6621 C   0  0  0  0  0  0  0  0  0  0  0  0
   20.2386   -2.1151   -1.7394 S   0  0  0  0  0  0  0  0  0  0  0  0
   20.2597   -2.8935   -0.5178 O   0  0  0  0  0  0  0  0  0  0  0  0
   21.3967   -1.3567   -2.1700 O   0  0  0  0  0  0  0  0  0  0  0  0
   18.8447   -1.0208   -1.6381 C   0  0  0  0  0  0  0  0  0  0  0  0
   18.5764   -0.1223   -2.6667 C   0  0  0  0  0  0  0  0  0  0  0  0
   17.4985    0.7658   -2.5469 C   0  0  0  0  0  0  0  0  0  0  0  0
   16.6819    0.7809   -1.4054 C   0  0  0  0  0  0  0  0  0  0  0  0
   16.9755   -0.1391   -0.3827 C   0  0  0  0  0  0  0  0  0  0  0  0
   18.0519   -1.0306   -0.4913 C   0  0  0  0  0  0  0  0  0  0  0  0
   15.5886    1.6814   -1.2782 N   0  0  0  0  0  0  0  0  0  0  0  0
   15.6281    3.0400   -1.7725 C   0  0  0  0  0  0  0  0  0  0  0  0
   14.4574    3.7373   -1.0794 C   0  0  2  0  0  0  0  0  0  0  0  0
   14.8237    4.3234    0.2206 N   0  0  0  0  0  0  0  0  0  0  0  0
   13.4476    2.6096   -0.9004 C   0  0  0  0  0  0  0  0  0  0  0  0
   14.3016    1.3665   -0.8106 C   0  0  0  0  0  0  0  0  0  0  0  0
   13.8639    0.2890   -0.4392 O   0  0  0  0  0  0  0  0  0  0  0  0
   15.2580    3.6106    0.8122 H   0  0  0  0  0  0  0  0  0  0  0  0
   15.5357    5.0447    0.0943 H   0  0  0  0  0  0  0  0  0  0  0  0
   16.0683   -9.5463   -2.6008 C   0  0  0  0  0  0  0  0  0  0  0  0
   15.9975  -10.8807   -2.8987 F   0  0  0  0  0  0  0  0  0  0  0  0
   15.4491   -8.9215   -3.6470 F   0  0  0  0  0  0  0  0  0  0  0  0
   13.0295   -7.4971   -0.1636 C   0  0  1  0  0  0  0  0  0  0  0  0
   14.3129   -6.9473   -0.8215 C   0  0  0  0  0  0  0  0  0  0  0  0
   15.4859   -7.9219   -0.7268 C   0  0  0  0  0  0  0  0  0  0  0  0
   15.1944   -9.3111   -1.3437 C   0  0  1  0  0  0  0  0  0  0  0  0
   13.6917   -9.4887   -1.6263 C   0  0  0  0  0  0  0  0  0  0  0  0
   12.8453   -8.9971   -0.4532 C   0  0  0  0  0  0  0  0  0  0  0  0
   12.6132   -5.9776    1.8263 N   0  0  0  0  0  0  0  0  0  0  0  0
   13.0255   -7.2219    1.3527 C   0  0  0  0  0  0  0  0  0  0  0  0
   13.3657   -8.1087    2.1466 O   0  0  0  0  0  0  0  0  0  0  0  0
   12.2593   -4.8121    0.9938 C   0  0  0  0  0  0  0  0  0  0  0  0
   10.3961   -3.3614    1.8177 N   0  0  0  0  0  0  0  0  0  0  0  0
   11.8449   -3.5678    1.8080 C   0  0  0  0  0  0  0  0  0  0  0  0
   10.1657   -2.6088    2.4701 H   0  0  0  0  0  0  0  0  0  0  0  0
    9.9434   -4.2027    2.1799 H   0  0  0  0  0  0  0  0  0  0  0  0
   12.7420   -5.7379    3.2718 C   0  0  0  0  0  0  0  0  0  0  0  0
   11.6183   -6.3817    4.1033 C   0  0  0  0  0  0  0  0  0  0  0  0
   10.2945   -5.9991    3.6120 N   0  0  0  0  0  0  0  0  0  0  0  0
    9.5795   -6.4449    4.1939 H   0  0  0  0  0  0  0  0  0  0  0  0
   10.1695   -4.9954    3.7506 H   0  0  0  0  0  0  0  0  0  0  0  0
   18.2962  -10.6693   -1.3716 H   0  0  0  0  0  0  0  0  0  0  0  0
   17.1427   -7.2909   -3.5936 H   0  0  0  0  0  0  0  0  0  0  0  0
   21.5661   -6.0957   -3.3864 H   0  0  0  0  0  0  0  0  0  0  0  0
   20.7256   -5.5104   -1.9600 H   0  0  0  0  0  0  0  0  0  0  0  0
   20.9028   -4.0527   -4.5891 H   0  0  0  0  0  0  0  0  0  0  0  0
   21.8393   -3.6865   -3.1358 H   0  0  0  0  0  0  0  0  0  0  0  0
   17.7083   -3.2516   -2.8606 H   0  0  0  0  0  0  0  0  0  0  0  0
   18.5905   -4.2749   -1.7243 H   0  0  0  0  0  0  0  0  0  0  0  0
   18.3204   -4.7767   -4.6738 H   0  0  0  0  0  0  0  0  0  0  0  0
   17.4573   -5.6234   -3.3884 H   0  0  0  0  0  0  0  0  0  0  0  0
   19.1675   -0.1100   -3.5125 H   0  0  0  0  0  0  0  0  0  0  0  0
   17.3006    1.4243   -3.3164 H   0  0  0  0  0  0  0  0  0  0  0  0
   16.3867   -0.1582    0.4646 H   0  0  0  0  0  0  0  0  0  0  0  0
   18.2566   -1.6914    0.2745 H   0  0  0  0  0  0  0  0  0  0  0  0
   15.5035    3.0590   -2.8351 H   0  0  0  0  0  0  0  0  0  0  0  0
   16.5632    3.5186   -1.5690 H   0  0  0  0  0  0  0  0  0  0  0  0
   14.0914    4.5666   -1.6480 H   0  0  0  0  0  0  0  0  0  0  0  0
   12.7845    2.5560   -1.7385 H   0  0  0  0  0  0  0  0  0  0  0  0
   12.8259    2.7456   -0.0402 H   0  0  0  0  0  0  0  0  0  0  0  0
   12.1981   -6.9813   -0.5967 H   0  0  0  0  0  0  0  0  0  0  0  0
   14.5849   -6.0352   -0.3326 H   0  0  0  0  0  0  0  0  0  0  0  0
   14.1039   -6.7918   -1.8593 H   0  0  0  0  0  0  0  0  0  0  0  0
   15.7307   -8.0560    0.3062 H   0  0  0  0  0  0  0  0  0  0  0  0
   16.2919   -7.4951   -1.2863 H   0  0  0  0  0  0  0  0  0  0  0  0
   15.4614  -10.0637   -0.6315 H   0  0  0  0  0  0  0  0  0  0  0  0
   13.4883  -10.5260   -1.7925 H   0  0  0  0  0  0  0  0  0  0  0  0
   13.4396   -8.9107   -2.4908 H   0  0  0  0  0  0  0  0  0  0  0  0
   13.1212   -9.5492    0.4209 H   0  0  0  0  0  0  0  0  0  0  0  0
   11.8188   -9.1481   -0.7147 H   0  0  0  0  0  0  0  0  0  0  0  0
   13.1076   -4.5558    0.3942 H   0  0  0  0  0  0  0  0  0  0  0  0
   11.4121   -5.0955    0.4048 H   0  0  0  0  0  0  0  0  0  0  0  0
   12.1808   -3.6901    2.8165 H   0  0  0  0  0  0  0  0  0  0  0  0
   12.2920   -2.7128    1.3454 H   0  0  0  0  0  0  0  0  0  0  0  0
   12.7272   -4.6817    3.4426 H   0  0  0  0  0  0  0  0  0  0  0  0
   13.6616   -6.1867    3.5846 H   0  0  0  0  0  0  0  0  0  0  0  0
   11.7152   -6.0655    5.1209 H   0  0  0  0  0  0  0  0  0  0  0  0
   11.7100   -7.4446    4.0216 H   0  0  0  0  0  0  0  0  0  0  0  0
  1  2  2  0
  2  3  1  0
  2 54  1  0
  3  4  1  0
  3  5  2  0
  5  6  1  0
  6  8  1  0
  6  7  2  0
  7  1  1  0
  7 55  1  0
  8  9  1  0
  9 10  1  0
  9 56  1  0
  9 57  1  0
 10 11  1  0
 10 58  1  0
 10 59  1  0
 11 14  1  0
 11 12  1  0
 12 13  1  0
 12 60  1  0
 12 61  1  0
 13  8  1  0
 13 62  1  0
 13 63  1  0
 14 15  2  0
 14 16  2  0
 14 17  1  0
 17 18  2  0
 18 19  1  0
 18 64  1  0
 19 20  2  0
 19 65  1  0
 20 23  1  0
 20 21  1  0
 21 22  2  0
 21 66  1  0
 22 17  1  0
 22 67  1  0
 23 24  1  0
 24 25  1  0
 24 68  1  0
 24 69  1  0
 25 26  1  0
 25 27  1  0
 25 70  1  6
 26 30  1  0
 26 31  1  0
 27 28  1  0
 27 71  1  0
 27 72  1  0
 28 29  2  0
 28 23  1  0
 32 33  1  0
 32 34  1  0
 32  1  1  0
 35 36  1  0
 35 73  1  6
 36 37  1  0
 36 74  1  0
 36 75  1  0
 37 38  1  0
 37 76  1  0
 37 77  1  0
 38 32  1  0
 38 39  1  0
 38 78  1  1
 39 40  1  0
 39 79  1  0
 39 80  1  0
 40 35  1  0
 40 81  1  0
 40 82  1  0
 41 49  1  0
 41 42  1  0
 42 43  2  0
 42 35  1  0
 44 41  1  0
 44 83  1  0
 44 84  1  0
 45 46  1  0
 45 47  1  0
 45 48  1  0
 46 44  1  0
 46 85  1  0
 46 86  1  0
 49 50  1  0
 49 87  1  0
 49 88  1  0
 50 51  1  0
 50 89  1  0
 50 90  1  0
 51 52  1  0
 51 53  1  0
M  END
>  <minimizedAffinity>  (4) 
-9.79868

>  <mol_id>  (4) 
71794

>  <source_index>  (4) 
3

>  <layer>  (4) 
L4

>  <uniprot>  (4) 
P43341

>  <paff>  (4) 
7.6021000000000001

>  <smiles>  (4) 
NCCN(CCN)C(=O)[C@H]1CC[C@H](C(F)(F)c2cc(Cl)nc(N3CCN(S(=O)(=O)c4ccc(N5C[C@H](N)CC5=O)cc4)CC3)c2)CC1

$$$$
L4:P43341:115767
     RDKit          3D

 63 67  0  0  0  0  0  0  0  0999 V2000
   11.7991   -4.3833    4.1798 N   0  0  0  0  0  0  0  0  0  0  0  0
   10.9772   -3.1702    3.8659 C   0  0  0  0  0  0  0  0  0  0  0  0
   11.4138   -2.4742    2.5639 C   0  0  0  0  0  0  0  0  0  0  0  0
   12.8203   -2.0589    2.6303 N   0  0  0  0  0  0  0  0  0  0  0  0
   13.6958   -2.8391    3.5268 C   0  0  0  0  0  0  0  0  0  0  0  0
   13.2045   -4.2917    3.6540 C   0  0  0  0  0  0  0  0  0  0  0  0
   13.4046   -1.2352    1.6879 C   0  0  0  0  0  0  0  0  0  0  0  0
   12.6558   -0.3904    0.8660 C   0  0  0  0  0  0  0  0  0  0  0  0
   13.2795    0.4571   -0.0656 C   0  0  0  0  0  0  0  0  0  0  0  0
   14.6670    0.4195   -0.1659 C   0  0  0  0  0  0  0  0  0  0  0  0
   15.3396   -0.4381    0.6758 C   0  0  0  0  0  0  0  0  0  0  0  0
   17.0513   -0.5514    0.6311 Cl  0  0  0  0  0  0  0  0  0  0  0  0
   14.7498   -1.2351    1.5878 N   0  0  0  0  0  0  0  0  0  0  0  0
   12.4646    1.3961   -0.9213 C   0  0  0  0  0  0  0  0  0  0  0  0
   11.2596    0.8652   -1.2720 F   0  0  0  0  0  0  0  0  0  0  0  0
   13.0914    1.6901   -2.0961 F   0  0  0  0  0  0  0  0  0  0  0  0
   12.2408    2.7018   -0.1891 C   0  0  0  0  0  0  0  0  0  0  0  0
   11.1386    3.6453   -0.7107 C   0  0  0  0  0  0  0  0  0  0  0  0
   12.0447    4.7859   -0.4394 N   0  0  0  0  0  0  0  0  0  0  0  0
   13.1938    3.8540   -0.5585 C   0  0  0  0  0  0  0  0  0  0  0  0
   11.9377    5.1788    0.4978 H   0  0  0  0  0  0  0  0  0  0  0  0
   11.0649   -5.8817    3.8294 S   0  0  0  0  0  0  0  0  0  0  0  0
    9.7539   -5.6286    3.2742 O   0  0  0  0  0  0  0  0  0  0  0  0
   11.2471   -6.7192    4.9970 O   0  0  0  0  0  0  0  0  0  0  0  0
   13.6243   -7.5998    0.4260 C   0  0  0  0  0  0  0  0  0  0  0  0
   12.9883   -6.3520    0.2964 C   0  0  0  0  0  0  0  0  0  0  0  0
   12.2118   -5.8186    1.3317 C   0  0  0  0  0  0  0  0  0  0  0  0
   12.0709   -6.5307    2.5202 C   0  0  0  0  0  0  0  0  0  0  0  0
   12.6973   -7.7640    2.6809 C   0  0  0  0  0  0  0  0  0  0  0  0
   13.4647   -8.2916    1.6356 C   0  0  0  0  0  0  0  0  0  0  0  0
   17.3428   -8.2167   -2.8150 N   0  0  0  0  0  0  0  0  0  0  0  0
   16.3155   -8.6707   -1.8817 C   0  0  2  0  0  0  0  0  0  0  0  0
   15.1072   -9.2799   -2.5765 C   0  0  0  0  0  0  0  0  0  0  0  0
   14.0171   -9.1349   -1.5387 C   0  0  0  0  0  0  0  0  0  0  0  0
   12.9761   -9.7732   -1.5790 O   0  0  0  0  0  0  0  0  0  0  0  0
   14.4039   -8.1260   -0.6397 N   0  0  0  0  0  0  0  0  0  0  0  0
   15.6896   -7.5817   -1.0123 C   0  0  0  0  0  0  0  0  0  0  0  0
   16.9769   -7.4976   -3.4396 H   0  0  0  0  0  0  0  0  0  0  0  0
   18.1199   -7.7920   -2.3082 H   0  0  0  0  0  0  0  0  0  0  0  0
   11.0718   -2.4748    4.6736 H   0  0  0  0  0  0  0  0  0  0  0  0
    9.9650   -3.4918    3.7355 H   0  0  0  0  0  0  0  0  0  0  0  0
   10.8018   -1.6105    2.4076 H   0  0  0  0  0  0  0  0  0  0  0  0
   11.3025   -3.1665    1.7557 H   0  0  0  0  0  0  0  0  0  0  0  0
   13.6980   -2.3848    4.4956 H   0  0  0  0  0  0  0  0  0  0  0  0
   14.6829   -2.8490    3.1140 H   0  0  0  0  0  0  0  0  0  0  0  0
   13.8551   -4.8161    4.3222 H   0  0  0  0  0  0  0  0  0  0  0  0
   13.2127   -4.7232    2.6749 H   0  0  0  0  0  0  0  0  0  0  0  0
   11.6268   -0.3883    0.9440 H   0  0  0  0  0  0  0  0  0  0  0  0
   15.1720    1.0110   -0.8443 H   0  0  0  0  0  0  0  0  0  0  0  0
   12.1937    2.2484    0.7789 H   0  0  0  0  0  0  0  0  0  0  0  0
   10.2416    3.6437   -0.1273 H   0  0  0  0  0  0  0  0  0  0  0  0
   10.6973    3.5039   -1.6751 H   0  0  0  0  0  0  0  0  0  0  0  0
   13.9778    4.0247    0.1494 H   0  0  0  0  0  0  0  0  0  0  0  0
   13.7906    3.8185   -1.4459 H   0  0  0  0  0  0  0  0  0  0  0  0
   13.0964   -5.8185   -0.5804 H   0  0  0  0  0  0  0  0  0  0  0  0
   11.7472   -4.9045    1.2152 H   0  0  0  0  0  0  0  0  0  0  0  0
   12.5964   -8.2860    3.5654 H   0  0  0  0  0  0  0  0  0  0  0  0
   13.9224   -9.2085    1.7576 H   0  0  0  0  0  0  0  0  0  0  0  0
   16.8750   -9.3673   -1.2930 H   0  0  0  0  0  0  0  0  0  0  0  0
   15.2779  -10.3089   -2.8153 H   0  0  0  0  0  0  0  0  0  0  0  0
   14.8714   -8.8089   -3.5079 H   0  0  0  0  0  0  0  0  0  0  0  0
   16.2892   -7.3956   -0.1458 H   0  0  0  0  0  0  0  0  0  0  0  0
   15.6074   -6.6447   -1.5224 H   0  0  0  0  0  0  0  0  0  0  0  0
  1  2  1  0
  2  3  1  0
  2 40  1  0
  2 41  1  0
  3  4  1  0
  3 42  1  0
  3 43  1  0
  4  7  1  0
  4  5  1  0
  5  6  1  0
  5 44  1  0
  5 45  1  0
  6  1  1  0
  6 46  1  0
  6 47  1  0
  7  8  2  0
  8  9  1  0
  8 48  1  0
  9 14  1  0
  9 10  2  0
 10 11  1  0
 10 49  1  0
 11 12  1  0
 11 13  2  0
 13  7  1  0
 14 15  1  0
 14 16  1  0
 14 17  1  0
 17 18  1  0
 17 50  1  0
 18 19  1  0
 18 51  1  0
 18 52  1  0
 19 20  1  0
 19 21  1  0
 20 17  1  0
 20 53  1  0
 20 54  1  0
 22 23  2  0
 22 24  2  0
 22  1  1  0
 25 26  2  0
 26 27  1  0
 26 55  1  0
 27 28  2  0
 27 56  1  0
 28 22  1  0
 28 29  1  0
 29 30  2  0
 29 57  1  0
 30 25  1  0
 30 58  1  0
 31 32  1  0
 31 38  1  0
 31 39  1  0
 32 33  1  0
 32 59  1  1
 33 34  1  0
 33 60  1  0
 33 61  1  0
 34 35  2  0
 34 36  1  0
 36 25  1  0
 36 37  1  0
 37 32  1  0
 37 62  1  0
 37 63  1  0
M  END
>  <minimizedAffinity>  (5) 
-10.57686

>  <mol_id>  (5) 
115767

>  <source_index>  (5) 
4

>  <layer>  (5) 
L4

>  <uniprot>  (5) 
P43341

>  <paff>  (5) 
7.4318

>  <smiles>  (5) 
N[C@@H]1CC(=O)N(c2ccc(S(=O)(=O)N3CCN(c4cc(C(F)(F)C5CNC5)cc(Cl)n4)CC3)cc2)C1

$$$$
L4:P43341:120455
     RDKit          3D

 94 99  0  0  0  0  0  0  0  0999 V2000
   16.7566   -8.8051   -2.3989 C   0  0  0  0  0  0  0  0  0  0  0  0
   17.5809   -9.9271   -2.3504 C   0  0  0  0  0  0  0  0  0  0  0  0
   18.8470   -9.8132   -2.8833 C   0  0  0  0  0  0  0  0  0  0  0  0
   19.9230  -11.1512   -2.8726 Cl  0  0  0  0  0  0  0  0  0  0  0  0
   19.3506   -8.6931   -3.4393 N   0  0  0  0  0  0  0  0  0  0  0  0
   18.5711   -7.5953   -3.4789 C   0  0  0  0  0  0  0  0  0  0  0  0
   17.2712   -7.6321   -2.9691 C   0  0  0  0  0  0  0  0  0  0  0  0
   19.0425   -6.4347   -4.1017 N   0  0  0  0  0  0  0  0  0  0  0  0
   20.4971   -6.1842   -3.9496 C   0  0  0  0  0  0  0  0  0  0  0  0
   20.8337   -5.4404   -2.6369 C   0  0  0  0  0  0  0  0  0  0  0  0
   20.0338   -4.1642   -2.5651 N   0  0  0  0  0  0  0  0  0  0  0  0
   18.5712   -4.4942   -2.5797 C   0  0  0  0  0  0  0  0  0  0  0  0
   18.2199   -5.2143   -3.8980 C   0  0  0  0  0  0  0  0  0  0  0  0
   20.4811   -3.0831   -1.3261 S   0  0  0  0  0  0  0  0  0  0  0  0
   21.7996   -2.5789   -1.6446 O   0  0  0  0  0  0  0  0  0  0  0  0
   20.1965   -3.7139   -0.0550 O   0  0  0  0  0  0  0  0  0  0  0  0
   19.3218   -1.7468   -1.4820 C   0  0  0  0  0  0  0  0  0  0  0  0
   19.1767   -1.0745   -2.6932 C   0  0  0  0  0  0  0  0  0  0  0  0
   18.2430   -0.0370   -2.8034 C   0  0  0  0  0  0  0  0  0  0  0  0
   17.4205    0.3288   -1.7192 C   0  0  0  0  0  0  0  0  0  0  0  0
   17.5952   -0.3595   -0.5096 C   0  0  0  0  0  0  0  0  0  0  0  0
   18.5454   -1.3826   -0.3823 C   0  0  0  0  0  0  0  0  0  0  0  0
   16.4417    1.3534   -1.8682 N   0  0  0  0  0  0  0  0  0  0  0  0
   16.7315    2.6311   -2.4815 C   0  0  0  0  0  0  0  0  0  0  0  0
   15.3564    3.2234   -2.7950 C   0  0  2  0  0  0  0  0  0  0  0  0
   15.3049    4.6774   -2.8854 N   0  0  0  0  0  0  0  0  0  0  0  0
   14.4927    2.6740   -1.6700 C   0  0  0  0  0  0  0  0  0  0  0  0
   15.1165    1.3233   -1.4020 C   0  0  0  0  0  0  0  0  0  0  0  0
   14.5163    0.4205   -0.8377 O   0  0  0  0  0  0  0  0  0  0  0  0
   15.9687    5.0132   -3.5853 H   0  0  0  0  0  0  0  0  0  0  0  0
   15.5767    5.1023   -1.9994 H   0  0  0  0  0  0  0  0  0  0  0  0
   15.3470   -8.8526   -1.8493 C   0  0  0  0  0  0  0  0  0  0  0  0
   14.4080   -8.7916   -2.8426 F   0  0  0  0  0  0  0  0  0  0  0  0
   15.1307  -10.0499   -1.2271 F   0  0  0  0  0  0  0  0  0  0  0  0
   12.6555   -6.9084    0.9243 C   0  0  1  0  0  0  0  0  0  0  0  0
   13.3091   -6.0054   -0.1452 C   0  0  0  0  0  0  0  0  0  0  0  0
   13.8750   -6.8213   -1.3064 C   0  0  0  0  0  0  0  0  0  0  0  0
   15.0359   -7.7213   -0.8373 C   0  0  1  0  0  0  0  0  0  0  0  0
   14.7739   -8.2871    0.5812 C   0  0  0  0  0  0  0  0  0  0  0  0
   13.2870   -8.3155    0.9483 C   0  0  0  0  0  0  0  0  0  0  0  0
   11.4126   -2.2778    3.0817 N   0  0  0  0  0  0  0  0  0  0  0  0
   11.1738   -3.3186    4.1052 C   0  0  0  0  0  0  0  0  0  0  0  0
   12.0242   -4.5899    3.9315 C   0  0  0  0  0  0  0  0  0  0  0  0
   11.9637   -5.1444    2.5782 N   0  0  0  0  0  0  0  0  0  0  0  0
   12.7297   -6.2713    2.3183 C   0  0  0  0  0  0  0  0  0  0  0  0
   13.4273   -6.7673    3.2064 O   0  0  0  0  0  0  0  0  0  0  0  0
   11.1568   -4.3728    1.6258 C   0  0  0  0  0  0  0  0  0  0  0  0
   11.4955   -2.8657    1.7202 C   0  0  0  0  0  0  0  0  0  0  0  0
   12.6038   -1.4701    3.4103 C   0  0  0  0  0  0  0  0  0  0  0  0
   14.5890   -1.1571    1.9250 N   0  0  0  0  0  0  0  0  0  0  0  0
   13.2069   -0.7412    2.1856 C   0  0  0  0  0  0  0  0  0  0  0  0
   14.6137   -2.1635    1.7553 H   0  0  0  0  0  0  0  0  0  0  0  0
   15.1604   -1.0070    2.7581 H   0  0  0  0  0  0  0  0  0  0  0  0
   17.2553  -10.8118   -1.9305 H   0  0  0  0  0  0  0  0  0  0  0  0
   16.6824   -6.7857   -3.0127 H   0  0  0  0  0  0  0  0  0  0  0  0
   20.8318   -5.5920   -4.7755 H   0  0  0  0  0  0  0  0  0  0  0  0
   20.9901   -7.1334   -3.9220 H   0  0  0  0  0  0  0  0  0  0  0  0
   21.8781   -5.2088   -2.6156 H   0  0  0  0  0  0  0  0  0  0  0  0
   20.5900   -6.0624   -1.8011 H   0  0  0  0  0  0  0  0  0  0  0  0
   18.0012   -3.5919   -2.5032 H   0  0  0  0  0  0  0  0  0  0  0  0
   18.3412   -5.1325   -1.7523 H   0  0  0  0  0  0  0  0  0  0  0  0
   18.3894   -4.5432   -4.7140 H   0  0  0  0  0  0  0  0  0  0  0  0
   17.1933   -5.5120   -3.8487 H   0  0  0  0  0  0  0  0  0  0  0  0
   19.7549   -1.3399   -3.5058 H   0  0  0  0  0  0  0  0  0  0  0  0
   18.1553    0.4706   -3.6976 H   0  0  0  0  0  0  0  0  0  0  0  0
   17.0121   -0.1076    0.3038 H   0  0  0  0  0  0  0  0  0  0  0  0
   18.6698   -1.8643    0.5218 H   0  0  0  0  0  0  0  0  0  0  0  0
   17.3007    2.5003   -3.3780 H   0  0  0  0  0  0  0  0  0  0  0  0
   17.3137    3.2656   -1.8464 H   0  0  0  0  0  0  0  0  0  0  0  0
   15.0280    2.9468   -3.7751 H   0  0  0  0  0  0  0  0  0  0  0  0
   13.4734    2.5737   -1.9797 H   0  0  0  0  0  0  0  0  0  0  0  0
   14.4645    3.3074   -0.8081 H   0  0  0  0  0  0  0  0  0  0  0  0
   11.6254   -7.0107    0.6534 H   0  0  0  0  0  0  0  0  0  0  0  0
   14.1038   -5.4507    0.3083 H   0  0  0  0  0  0  0  0  0  0  0  0
   12.5568   -5.3511   -0.5335 H   0  0  0  0  0  0  0  0  0  0  0  0
   14.2336   -6.1531   -2.0612 H   0  0  0  0  0  0  0  0  0  0  0  0
   13.0970   -7.4445   -1.6954 H   0  0  0  0  0  0  0  0  0  0  0  0
   15.9076   -7.1029   -0.7867 H   0  0  0  0  0  0  0  0  0  0  0  0
   15.2893   -7.6762    1.2926 H   0  0  0  0  0  0  0  0  0  0  0  0
   15.1262   -9.2974    0.5932 H   0  0  0  0  0  0  0  0  0  0  0  0
   13.1823   -8.7237    1.9318 H   0  0  0  0  0  0  0  0  0  0  0  0
   12.7801   -8.9161    0.2222 H   0  0  0  0  0  0  0  0  0  0  0  0
   10.1418   -3.5982    4.0634 H   0  0  0  0  0  0  0  0  0  0  0  0
   11.4530   -2.8912    5.0456 H   0  0  0  0  0  0  0  0  0  0  0  0
   11.6722   -5.3308    4.6185 H   0  0  0  0  0  0  0  0  0  0  0  0
   13.0423   -4.3191    4.1187 H   0  0  0  0  0  0  0  0  0  0  0  0
   10.1197   -4.5147    1.8477 H   0  0  0  0  0  0  0  0  0  0  0  0
   11.3734   -4.7135    0.6349 H   0  0  0  0  0  0  0  0  0  0  0  0
   10.8142   -2.3342    1.0891 H   0  0  0  0  0  0  0  0  0  0  0  0
   12.5189   -2.7744    1.4216 H   0  0  0  0  0  0  0  0  0  0  0  0
   12.3266   -0.7372    4.1390 H   0  0  0  0  0  0  0  0  0  0  0  0
   13.3506   -2.1424    3.7780 H   0  0  0  0  0  0  0  0  0  0  0  0
   12.6114   -0.9619    1.3244 H   0  0  0  0  0  0  0  0  0  0  0  0
   13.2111    0.3082    2.3944 H   0  0  0  0  0  0  0  0  0  0  0  0
  1  2  2  0
  2  3  1  0
  2 54  1  0
  3  4  1  0
  3  5  2  0
  5  6  1  0
  6  8  1  0
  6  7  2  0
  7  1  1  0
  7 55  1  0
  8  9  1  0
  9 10  1  0
  9 56  1  0
  9 57  1  0
 10 11  1  0
 10 58  1  0
 10 59  1  0
 11 14  1  0
 11 12  1  0
 12 13  1  0
 12 60  1  0
 12 61  1  0
 13  8  1  0
 13 62  1  0
 13 63  1  0
 14 15  2  0
 14 16  2  0
 14 17  1  0
 17 18  2  0
 18 19  1  0
 18 64  1  0
 19 20  2  0
 19 65  1  0
 20 23  1  0
 20 21  1  0
 21 22  2  0
 21 66  1  0
 22 17  1  0
 22 67  1  0
 23 24  1  0
 24 25  1  0
 24 68  1  0
 24 69  1  0
 25 26  1  0
 25 27  1  0
 25 70  1  6
 26 30  1  0
 26 31  1  0
 27 28  1  0
 27 71  1  0
 27 72  1  0
 28 29  2  0
 28 23  1  0
 32 33  1  0
 32 34  1  0
 32  1  1  0
 35 36  1  0
 35 73  1  6
 36 37  1  0
 36 74  1  0
 36 75  1  0
 37 38  1  0
 37 76  1  0
 37 77  1  0
 38 32  1  0
 38 39  1  0
 38 78  1  1
 39 40  1  0
 39 79  1  0
 39 80  1  0
 40 35  1  0
 40 81  1  0
 40 82  1  0
 41 42  1  0
 42 43  1  0
 42 83  1  0
 42 84  1  0
 43 44  1  0
 43 85  1  0
 43 86  1  0
 44 45  1  0
 44 47  1  0
 45 46  2  0
 45 35  1  0
 47 48  1  0
 47 87  1  0
 47 88  1  0
 48 41  1  0
 48 89  1  0
 48 90  1  0
 49 41  1  0
 49 91  1  0
 49 92  1  0
 50 51  1  0
 50 52  1  0
 50 53  1  0
 51 49  1  0
 51 93  1  0
 51 94  1  0
M  END
>  <minimizedAffinity>  (6) 
-9.53012

>  <mol_id>  (6) 
120455

>  <source_index>  (6) 
5

>  <layer>  (6) 
L4

>  <uniprot>  (6) 
P43341

>  <paff>  (6) 
8.5228999999999999

>  <smiles>  (6) 
NCCN1CCN(C(=O)[C@H]2CC[C@H](C(F)(F)c3cc(Cl)nc(N4CCN(S(=O)(=O)c5ccc(N6C[C@H](N)CC6=O)cc5)CC4)c3)CC2)CC1

$$$$
L4:P43341:129151
     RDKit          3D

 65 69  0  0  0  0  0  0  0  0999 V2000
   12.4783   -5.9900    3.2230 N   0  0  0  0  0  0  0  0  0  0  0  0
   13.7312   -5.8350    2.3946 C   0  0  0  0  0  0  0  0  0  0  0  0
   14.5997   -7.1039    2.4429 C   0  0  0  0  0  0  0  0  0  0  0  0
   13.8777   -8.2621    1.8667 N   0  0  0  0  0  0  0  0  0  0  0  0
   12.4316   -8.3033    2.2004 C   0  0  0  0  0  0  0  0  0  0  0  0
   12.1015   -7.4340    3.4291 C   0  0  0  0  0  0  0  0  0  0  0  0
   14.1450   -8.5003    0.5064 C   0  0  0  0  0  0  0  0  0  0  0  0
   15.4171   -8.2406   -0.0126 C   0  0  0  0  0  0  0  0  0  0  0  0
   15.6951   -8.4590   -1.3719 C   0  0  0  0  0  0  0  0  0  0  0  0
   14.6681   -8.9381   -2.1826 C   0  0  0  0  0  0  0  0  0  0  0  0
   13.4393   -9.1594   -1.5958 C   0  0  0  0  0  0  0  0  0  0  0  0
   12.1161   -9.7394   -2.5205 Cl  0  0  0  0  0  0  0  0  0  0  0  0
   13.1596   -8.9506   -0.2942 N   0  0  0  0  0  0  0  0  0  0  0  0
   17.0809   -8.1877   -1.9384 C   0  0  0  0  0  0  0  0  0  0  0  0
   17.0203   -8.1522   -3.3094 F   0  0  0  0  0  0  0  0  0  0  0  0
   17.5057   -6.9269   -1.6009 F   0  0  0  0  0  0  0  0  0  0  0  0
   18.0915   -9.2268   -1.4618 C   0  0  0  0  0  0  0  0  0  0  0  0
   19.1486   -8.8609   -0.6101 C   0  0  0  0  0  0  0  0  0  0  0  0
   20.0649   -9.8172   -0.1671 C   0  0  0  0  0  0  0  0  0  0  0  0
   19.9389  -11.1454   -0.5721 C   0  0  0  0  0  0  0  0  0  0  0  0
   18.8997  -11.5213   -1.4214 C   0  0  0  0  0  0  0  0  0  0  0  0
   17.9805  -10.5691   -1.8645 C   0  0  0  0  0  0  0  0  0  0  0  0
   11.1611   -5.0164    2.7481 S   0  0  0  0  0  0  0  0  0  0  0  0
   10.4900   -5.6884    1.6568 O   0  0  0  0  0  0  0  0  0  0  0  0
   10.4389   -4.6466    3.9466 O   0  0  0  0  0  0  0  0  0  0  0  0
   13.2152   -1.2536    1.0956 C   0  0  0  0  0  0  0  0  0  0  0  0
   12.1194   -1.8407    0.4354 C   0  0  0  0  0  0  0  0  0  0  0  0
   11.4880   -2.9821    0.9441 C   0  0  0  0  0  0  0  0  0  0  0  0
   11.9466   -3.5524    2.1304 C   0  0  0  0  0  0  0  0  0  0  0  0
   13.0342   -2.9987    2.8013 C   0  0  0  0  0  0  0  0  0  0  0  0
   13.6590   -1.8568    2.2820 C   0  0  0  0  0  0  0  0  0  0  0  0
   14.1701    1.9241   -0.5376 C   0  0  1  0  0  0  0  0  0  0  0  0
   13.1215    1.0622    0.1324 C   0  0  0  0  0  0  0  0  0  0  0  0
   13.8457   -0.1003    0.5572 N   0  0  0  0  0  0  0  0  0  0  0  0
   15.2061    0.1219    0.4037 C   0  0  0  0  0  0  0  0  0  0  0  0
   16.1411   -0.6137    0.6798 O   0  0  0  0  0  0  0  0  0  0  0  0
   15.4250    1.3697   -0.1253 O   0  0  0  0  0  0  0  0  0  0  0  0
   15.3753    2.2469   -2.7287 N   0  0  0  0  0  0  0  0  0  0  0  0
   14.0976    1.9602   -2.0746 C   0  0  0  0  0  0  0  0  0  0  0  0
   15.7173    3.1586   -2.4146 H   0  0  0  0  0  0  0  0  0  0  0  0
   15.2293    2.3456   -3.7339 H   0  0  0  0  0  0  0  0  0  0  0  0
   14.2986   -5.0107    2.7733 H   0  0  0  0  0  0  0  0  0  0  0  0
   13.4428   -5.6641    1.3785 H   0  0  0  0  0  0  0  0  0  0  0  0
   14.8499   -7.3184    3.4609 H   0  0  0  0  0  0  0  0  0  0  0  0
   15.4857   -6.9333    1.8678 H   0  0  0  0  0  0  0  0  0  0  0  0
   12.1529   -9.3154    2.4075 H   0  0  0  0  0  0  0  0  0  0  0  0
   11.8868   -7.9171    1.3644 H   0  0  0  0  0  0  0  0  0  0  0  0
   12.6384   -7.8130    4.2735 H   0  0  0  0  0  0  0  0  0  0  0  0
   11.0443   -7.4779    3.5878 H   0  0  0  0  0  0  0  0  0  0  0  0
   16.1595   -7.8847    0.6096 H   0  0  0  0  0  0  0  0  0  0  0  0
   14.8213   -9.1210   -3.1867 H   0  0  0  0  0  0  0  0  0  0  0  0
   19.2481   -7.8785   -0.3101 H   0  0  0  0  0  0  0  0  0  0  0  0
   20.8359   -9.5405    0.4606 H   0  0  0  0  0  0  0  0  0  0  0  0
   20.6160  -11.8511   -0.2426 H   0  0  0  0  0  0  0  0  0  0  0  0
   18.8099  -12.5042   -1.7228 H   0  0  0  0  0  0  0  0  0  0  0  0
   17.2128  -10.8528   -2.4931 H   0  0  0  0  0  0  0  0  0  0  0  0
   11.7742   -1.4210   -0.4419 H   0  0  0  0  0  0  0  0  0  0  0  0
   10.6875   -3.3989    0.4435 H   0  0  0  0  0  0  0  0  0  0  0  0
   13.3778   -3.4266    3.6753 H   0  0  0  0  0  0  0  0  0  0  0  0
   14.4640   -1.4503    2.7838 H   0  0  0  0  0  0  0  0  0  0  0  0
   14.0215    2.9425   -0.2449 H   0  0  0  0  0  0  0  0  0  0  0  0
   12.3490    0.7972   -0.5589 H   0  0  0  0  0  0  0  0  0  0  0  0
   12.6347    1.5625    0.9433 H   0  0  0  0  0  0  0  0  0  0  0  0
   13.7518    1.0072   -2.4167 H   0  0  0  0  0  0  0  0  0  0  0  0
   13.4339    2.7589   -2.3326 H   0  0  0  0  0  0  0  0  0  0  0  0
  1  2  1  0
  2  3  1  0
  2 42  1  0
  2 43  1  0
  3  4  1  0
  3 44  1  0
  3 45  1  0
  4  7  1  0
  4  5  1  0
  5  6  1  0
  5 46  1  0
  5 47  1  0
  6  1  1  0
  6 48  1  0
  6 49  1  0
  7  8  2  0
  8  9  1  0
  8 50  1  0
  9 14  1  0
  9 10  2  0
 10 11  1  0
 10 51  1  0
 11 12  1  0
 11 13  2  0
 13  7  1  0
 14 15  1  0
 14 16  1  0
 14 17  1  0
 17 18  2  0
 18 19  1  0
 18 52  1  0
 19 20  2  0
 19 53  1  0
 20 21  1  0
 20 54  1  0
 21 22  2  0
 21 55  1  0
 22 17  1  0
 22 56  1  0
 23 24  2  0
 23 25  2  0
 23  1  1  0
 26 27  2  0
 27 28  1  0
 27 57  1  0
 28 29  2  0
 28 58  1  0
 29 23  1  0
 29 30  1  0
 30 31  2  0
 30 59  1  0
 31 26  1  0
 31 60  1  0
 32 33  1  0
 32 61  1  1
 33 34  1  0
 33 62  1  0
 33 63  1  0
 34 26  1  0
 34 35  1  0
 35 36  2  0
 35 37  1  0
 37 32  1  0
 38 39  1  0
 38 40  1  0
 38 41  1  0
 39 32  1  0
 39 64  1  0
 39 65  1  0
M  END
>  <minimizedAffinity>  (7) 
-9.42146

>  <mol_id>  (7) 
129151

>  <source_index>  (7) 
6

>  <layer>  (7) 
L4

>  <uniprot>  (7) 
P43341

>  <paff>  (7) 
8.0968999999999998

>  <smiles>  (7) 
NCC1CN(c2ccc(S(=O)(=O)N3CCN(c4cc(C(F)(F)c5ccccc5)cc(Cl)n4)CC3)cc2)C(=O)O1

$$$$
L4:P43341:131205
     RDKit          3D

 54 57  0  0  0  0  0  0  0  0999 V2000
   11.0506   -5.8824    3.8643 S   0  0  0  0  0  0  0  0  0  0  0  0
   11.2204   -6.6377    5.0873 O   0  0  0  0  0  0  0  0  0  0  0  0
    9.7396   -5.6712    3.2890 O   0  0  0  0  0  0  0  0  0  0  0  0
   13.7691   -7.7680    0.6753 C   0  0  0  0  0  0  0  0  0  0  0  0
   13.6959   -8.3033    1.9705 C   0  0  0  0  0  0  0  0  0  0  0  0
   12.8738   -7.7353    2.9524 C   0  0  0  0  0  0  0  0  0  0  0  0
   12.0998   -6.6213    2.6396 C   0  0  0  0  0  0  0  0  0  0  0  0
   12.1593   -6.0586    1.3663 C   0  0  0  0  0  0  0  0  0  0  0  0
   12.9883   -6.6320    0.3949 C   0  0  0  0  0  0  0  0  0  0  0  0
   17.8379   -9.2348   -1.7795 N   0  0  0  0  0  0  0  0  0  0  0  0
   16.4960   -8.6694   -1.6713 C   0  0  1  0  0  0  0  0  0  0  0  0
   15.4082   -9.6235   -2.1391 C   0  0  0  0  0  0  0  0  0  0  0  0
   14.1786   -9.0936   -1.4376 C   0  0  0  0  0  0  0  0  0  0  0  0
   13.0440   -9.3617   -1.8023 O   0  0  0  0  0  0  0  0  0  0  0  0
   14.6003   -8.3398   -0.3279 N   0  0  0  0  0  0  0  0  0  0  0  0
   16.0441   -8.3137   -0.2560 C   0  0  0  0  0  0  0  0  0  0  0  0
   18.5282   -8.5890   -1.3967 H   0  0  0  0  0  0  0  0  0  0  0  0
   17.9146  -10.0944   -1.2354 H   0  0  0  0  0  0  0  0  0  0  0  0
   11.7623   -4.3465    4.0888 N   0  0  0  0  0  0  0  0  0  0  0  0
   13.1894   -4.2378    3.6368 C   0  0  0  0  0  0  0  0  0  0  0  0
   13.6794   -2.7767    3.6025 C   0  0  0  0  0  0  0  0  0  0  0  0
   12.8396   -1.9310    2.7364 N   0  0  0  0  0  0  0  0  0  0  0  0
   11.5246   -2.4918    2.3731 C   0  0  0  0  0  0  0  0  0  0  0  0
   10.9041   -3.2160    3.5791 C   0  0  0  0  0  0  0  0  0  0  0  0
   13.4462   -1.1336    1.7733 C   0  0  0  0  0  0  0  0  0  0  0  0
   12.6852   -0.3099    0.9422 C   0  0  0  0  0  0  0  0  0  0  0  0
   13.3001    0.4715   -0.0476 C   0  0  0  0  0  0  0  0  0  0  0  0
   14.6854    0.4089   -0.1740 C   0  0  0  0  0  0  0  0  0  0  0  0
   15.3637   -0.4419    0.6719 C   0  0  0  0  0  0  0  0  0  0  0  0
   17.0687   -0.5986    0.5780 Cl  0  0  0  0  0  0  0  0  0  0  0  0
   14.7826   -1.2043    1.6183 N   0  0  0  0  0  0  0  0  0  0  0  0
   12.4867    1.3778   -0.9277 C   0  0  0  0  0  0  0  0  0  0  0  0
   13.1346    1.7364   -2.0704 F   0  0  0  0  0  0  0  0  0  0  0  0
   11.3213    0.7963   -1.3231 F   0  0  0  0  0  0  0  0  0  0  0  0
   12.1382    2.5417   -0.3130 F   0  0  0  0  0  0  0  0  0  0  0  0
   14.2607   -9.1346    2.2050 H   0  0  0  0  0  0  0  0  0  0  0  0
   12.8422   -8.1400    3.9012 H   0  0  0  0  0  0  0  0  0  0  0  0
   11.5956   -5.2241    1.1407 H   0  0  0  0  0  0  0  0  0  0  0  0
   13.0275   -6.2123   -0.5471 H   0  0  0  0  0  0  0  0  0  0  0  0
   16.5990   -7.7956   -2.2801 H   0  0  0  0  0  0  0  0  0  0  0  0
   15.6209  -10.6283   -1.8390 H   0  0  0  0  0  0  0  0  0  0  0  0
   15.3064   -9.6629   -3.2035 H   0  0  0  0  0  0  0  0  0  0  0  0
   16.4021   -9.0345    0.4491 H   0  0  0  0  0  0  0  0  0  0  0  0
   16.4213   -7.3666    0.0689 H   0  0  0  0  0  0  0  0  0  0  0  0
   13.2721   -4.6522    2.6538 H   0  0  0  0  0  0  0  0  0  0  0  0
   13.7974   -4.7719    4.3368 H   0  0  0  0  0  0  0  0  0  0  0  0
   14.6837   -2.7581    3.2338 H   0  0  0  0  0  0  0  0  0  0  0  0
   13.6240   -2.3870    4.5975 H   0  0  0  0  0  0  0  0  0  0  0  0
   11.6468   -3.1864    1.5684 H   0  0  0  0  0  0  0  0  0  0  0  0
   10.8763   -1.6951    2.0731 H   0  0  0  0  0  0  0  0  0  0  0  0
    9.9542   -3.6129    3.2875 H   0  0  0  0  0  0  0  0  0  0  0  0
   10.8107   -2.5014    4.3700 H   0  0  0  0  0  0  0  0  0  0  0  0
   11.6602   -0.2753    1.0569 H   0  0  0  0  0  0  0  0  0  0  0  0
   15.1854    0.9782   -0.8747 H   0  0  0  0  0  0  0  0  0  0  0  0
  1  2  2  0
  1  3  2  0
  1 19  1  0
  4  5  2  0
  5  6  1  0
  5 36  1  0
  6  7  2  0
  6 37  1  0
  7  1  1  0
  7  8  1  0
  8  9  2  0
  8 38  1  0
  9  4  1  0
  9 39  1  0
 10 11  1  0
 10 17  1  0
 10 18  1  0
 11 12  1  0
 11 40  1  6
 12 13  1  0
 12 41  1  0
 12 42  1  0
 13 14  2  0
 13 15  1  0
 15  4  1  0
 15 16  1  0
 16 11  1  0
 16 43  1  0
 16 44  1  0
 19 20  1  0
 20 21  1  0
 20 45  1  0
 20 46  1  0
 21 22  1  0
 21 47  1  0
 21 48  1  0
 22 25  1  0
 22 23  1  0
 23 24  1  0
 23 49  1  0
 23 50  1  0
 24 19  1  0
 24 51  1  0
 24 52  1  0
 25 26  2  0
 26 27  1  0
 26 53  1  0
 27 32  1  0
 27 28  2  0
 28 29  1  0
 28 54  1  0
 29 30  1  0
 29 31  2  0
 31 25  1  0
 32 33  1  0
 32 34  1  0
 32 35  1  0
M  END
>  <minimizedAffinity>  (8) 
-10.13570

>  <mol_id>  (8) 
131205

>  <source_index>  (8) 
7

>  <layer>  (8) 
L4

>  <uniprot>  (8) 
P43341

>  <paff>  (8) 
6.8826999999999998

>  <smiles>  (8) 
NC1CC(=O)N(c2ccc(S(=O)(=O)N3CCN(c4cc(C(F)(F)F)cc(Cl)n4)CC3)cc2)C1

$$$$
L4:P43341:132318
     RDKit          3D

 66 70  0  0  0  0  0  0  0  0999 V2000
   13.8858   -0.7164    0.7811 C   0  0  0  0  0  0  0  0  0  0  0  0
   15.2462   -0.9706    1.0310 C   0  0  0  0  0  0  0  0  0  0  0  0
   16.2568   -0.2615    0.3704 C   0  0  0  0  0  0  0  0  0  0  0  0
   15.9154    0.7115   -0.5658 C   0  0  0  0  0  0  0  0  0  0  0  0
   14.5781    0.9861   -0.8358 C   0  0  0  0  0  0  0  0  0  0  0  0
   13.5754    0.2781   -0.1599 C   0  0  0  0  0  0  0  0  0  0  0  0
   13.0803   -0.7161    3.7030 O   0  0  0  0  0  0  0  0  0  0  0  0
   12.5505   -1.3746    2.8195 C   0  0  0  0  0  0  0  0  0  0  0  0
   11.3151   -2.2064    3.0632 C   0  0  0  0  0  0  0  0  0  0  0  0
   11.2340   -3.1383    1.8519 C   0  0  1  0  0  0  0  0  0  0  0  0
   11.9171   -2.2867    0.7672 C   0  0  0  0  0  0  0  0  0  0  0  0
   12.8734   -1.4541    1.4584 N   0  0  0  0  0  0  0  0  0  0  0  0
   11.8722   -4.4514    2.1005 N   0  0  0  0  0  0  0  0  0  0  0  0
   12.6918   -4.9374    0.9678 C   0  0  0  0  0  0  0  0  0  0  0  0
   12.9227   -6.3921    1.3617 C   0  0  1  0  0  0  0  0  0  0  0  0
   13.8499   -6.4602    2.4594 O   0  0  0  0  0  0  0  0  0  0  0  0
   11.5404   -6.8344    1.8387 C   0  0  1  0  0  0  0  0  0  0  0  0
   11.6318   -7.8283    2.8514 O   0  0  0  0  0  0  0  0  0  0  0  0
   10.8899   -5.5370    2.3495 C   0  0  0  0  0  0  0  0  0  0  0  0
   13.5810   -5.7437    3.0702 H   0  0  0  0  0  0  0  0  0  0  0  0
   12.5551   -7.7903    3.1791 H   0  0  0  0  0  0  0  0  0  0  0  0
   17.1972    1.5740   -1.4401 S   0  0  0  0  0  0  0  0  0  0  0  0
   16.9885    1.3258   -2.8491 O   0  0  0  0  0  0  0  0  0  0  0  0
   18.4615    1.2965   -0.7921 O   0  0  0  0  0  0  0  0  0  0  0  0
   16.8335    3.2110   -1.1295 N   0  0  0  0  0  0  0  0  0  0  0  0
   16.4919    4.0448   -2.3335 C   0  0  0  0  0  0  0  0  0  0  0  0
   14.9842    4.3401   -2.4344 C   0  0  0  0  0  0  0  0  0  0  0  0
   14.4904    5.0740   -1.2400 N   0  0  0  0  0  0  0  0  0  0  0  0
   15.2600    4.8026   -0.0011 C   0  0  0  0  0  0  0  0  0  0  0  0
   15.8524    3.3858    0.0015 C   0  0  0  0  0  0  0  0  0  0  0  0
   13.0974    4.9400   -1.0941 C   0  0  0  0  0  0  0  0  0  0  0  0
   12.2571    5.5250   -2.0438 C   0  0  0  0  0  0  0  0  0  0  0  0
   10.8644    5.4397   -1.9050 C   0  0  0  0  0  0  0  0  0  0  0  0
   10.3507    4.7382   -0.8160 C   0  0  0  0  0  0  0  0  0  0  0  0
   11.2505    4.1896    0.0744 C   0  0  0  0  0  0  0  0  0  0  0  0
   10.7060    3.3240    1.4510 Cl  0  0  0  0  0  0  0  0  0  0  0  0
   12.5916    4.2783   -0.0362 N   0  0  0  0  0  0  0  0  0  0  0  0
    9.9453    6.0691   -2.9130 C   0  0  0  0  0  0  0  0  0  0  0  0
    9.2006    5.1447   -3.5779 F   0  0  0  0  0  0  0  0  0  0  0  0
   10.6012    6.7831   -3.8693 F   0  0  0  0  0  0  0  0  0  0  0  0
    9.0574    6.9314   -2.3459 F   0  0  0  0  0  0  0  0  0  0  0  0
   15.5056   -1.6965    1.7171 H   0  0  0  0  0  0  0  0  0  0  0  0
   17.2487   -0.4587    0.5760 H   0  0  0  0  0  0  0  0  0  0  0  0
   14.3263    1.7071   -1.5299 H   0  0  0  0  0  0  0  0  0  0  0  0
   12.5857    0.4927   -0.3585 H   0  0  0  0  0  0  0  0  0  0  0  0
   10.4461   -1.5847    3.1207 H   0  0  0  0  0  0  0  0  0  0  0  0
   11.3629   -2.7440    3.9871 H   0  0  0  0  0  0  0  0  0  0  0  0
   10.2420   -3.4330    1.5798 H   0  0  0  0  0  0  0  0  0  0  0  0
   11.1950   -1.6813    0.2603 H   0  0  0  0  0  0  0  0  0  0  0  0
   12.3918   -2.8991    0.0293 H   0  0  0  0  0  0  0  0  0  0  0  0
   13.6148   -4.4010    0.8948 H   0  0  0  0  0  0  0  0  0  0  0  0
   12.2305   -4.8126    0.0104 H   0  0  0  0  0  0  0  0  0  0  0  0
   13.3219   -6.9906    0.5696 H   0  0  0  0  0  0  0  0  0  0  0  0
   10.9623   -7.2934    1.0641 H   0  0  0  0  0  0  0  0  0  0  0  0
   10.6809   -5.6146    3.3960 H   0  0  0  0  0  0  0  0  0  0  0  0
    9.9631   -5.3444    1.8507 H   0  0  0  0  0  0  0  0  0  0  0  0
   16.7988    3.5194   -3.2136 H   0  0  0  0  0  0  0  0  0  0  0  0
   17.0019    4.9805   -2.2376 H   0  0  0  0  0  0  0  0  0  0  0  0
   14.4537    3.4146   -2.5174 H   0  0  0  0  0  0  0  0  0  0  0  0
   14.8196    4.9529   -3.2960 H   0  0  0  0  0  0  0  0  0  0  0  0
   14.6089    4.9076    0.8415 H   0  0  0  0  0  0  0  0  0  0  0  0
   16.0683    5.5019    0.0490 H   0  0  0  0  0  0  0  0  0  0  0  0
   15.0605    2.6747   -0.1086 H   0  0  0  0  0  0  0  0  0  0  0  0
   16.3667    3.2320    0.9271 H   0  0  0  0  0  0  0  0  0  0  0  0
   12.6631    6.0225   -2.8517 H   0  0  0  0  0  0  0  0  0  0  0  0
    9.3331    4.6328   -0.6803 H   0  0  0  0  0  0  0  0  0  0  0  0
  1  2  2  0
  2  3  1  0
  2 42  1  0
  3  4  2  0
  3 43  1  0
  4 22  1  0
  4  5  1  0
  5  6  2  0
  5 44  1  0
  6  1  1  0
  6 45  1  0
  7  8  2  0
  8  9  1  0
  9 10  1  0
  9 46  1  0
  9 47  1  0
 10 13  1  0
 10 11  1  0
 10 48  1  6
 11 12  1  0
 11 49  1  0
 11 50  1  0
 12  1  1  0
 12  8  1  0
 13 14  1  0
 14 15  1  0
 14 51  1  0
 14 52  1  0
 15 16  1  0
 15 17  1  0
 15 53  1  6
 16 20  1  0
 17 18  1  0
 17 19  1  0
 17 54  1  6
 18 21  1  0
 19 13  1  0
 19 55  1  0
 19 56  1  0
 22 23  2  0
 22 24  2  0
 22 25  1  0
 25 26  1  0
 26 27  1  0
 26 57  1  0
 26 58  1  0
 27 28  1  0
 27 59  1  0
 27 60  1  0
 28 31  1  0
 28 29  1  0
 29 30  1  0
 29 61  1  0
 29 62  1  0
 30 25  1  0
 30 63  1  0
 30 64  1  0
 31 32  2  0
 32 33  1  0
 32 65  1  0
 33 38  1  0
 33 34  2  0
 34 35  1  0
 34 66  1  0
 35 36  1  0
 35 37  2  0
 37 31  1  0
 38 39  1  0
 38 40  1  0
 38 41  1  0
M  END
>  <minimizedAffinity>  (9) 
-9.58128

>  <mol_id>  (9) 
132318

>  <source_index>  (9) 
8

>  <layer>  (9) 
L4

>  <uniprot>  (9) 
P43341

>  <paff>  (9) 
8.3978999999999999

>  <smiles>  (9) 
O=C1CC(N2C[C@@H](O)[C@@H](O)C2)CN1c1ccc(S(=O)(=O)N2CCN(c3cc(C(F)(F)F)cc(Cl)n3)CC2)cc1

$$$$
L4:P43341:138164
     RDKit          3D

 55 58  0  0  0  0  0  0  0  0999 V2000
   11.4945   -4.3661    3.6232 S   0  0  0  0  0  0  0  0  0  0  0  0
   10.3268   -4.9959    3.0462 O   0  0  0  0  0  0  0  0  0  0  0  0
   11.5427   -4.0006    5.0226 O   0  0  0  0  0  0  0  0  0  0  0  0
   12.3531   -0.5046    1.2778 C   0  0  0  0  0  0  0  0  0  0  0  0
   13.0077   -0.7884    2.4870 C   0  0  0  0  0  0  0  0  0  0  0  0
   12.7587   -1.9728    3.1924 C   0  0  0  0  0  0  0  0  0  0  0  0
   11.8469   -2.8992    2.6903 C   0  0  0  0  0  0  0  0  0  0  0  0
   11.1823   -2.6517    1.4944 C   0  0  0  0  0  0  0  0  0  0  0  0
   11.4454   -1.4711    0.8018 C   0  0  0  0  0  0  0  0  0  0  0  0
   10.7675   -1.2809   -0.3407 F   0  0  0  0  0  0  0  0  0  0  0  0
   13.5341    2.2929   -0.8336 C   0  0  1  0  0  0  0  0  0  0  0  0
   13.5029    0.8092   -0.5332 C   0  0  0  0  0  0  0  0  0  0  0  0
   12.5928    0.7084    0.5710 N   0  0  0  0  0  0  0  0  0  0  0  0
   11.8584    1.8843    0.6602 C   0  0  0  0  0  0  0  0  0  0  0  0
   10.9242    2.1481    1.4001 O   0  0  0  0  0  0  0  0  0  0  0  0
   12.3153    2.7891   -0.2633 O   0  0  0  0  0  0  0  0  0  0  0  0
   14.3746    4.4119    0.2255 N   0  0  0  0  0  0  0  0  0  0  0  0
   14.7135    3.0554   -0.2042 C   0  0  0  0  0  0  0  0  0  0  0  0
   14.2853    5.0306   -0.5803 H   0  0  0  0  0  0  0  0  0  0  0  0
   15.1551    4.7901    0.7653 H   0  0  0  0  0  0  0  0  0  0  0  0
   12.8357   -5.3600    3.2781 N   0  0  0  0  0  0  0  0  0  0  0  0
   13.6410   -4.9664    2.0765 C   0  0  0  0  0  0  0  0  0  0  0  0
   13.2271   -5.7329    0.8045 C   0  0  0  0  0  0  0  0  0  0  0  0
   13.2964   -7.1926    0.9964 N   0  0  0  0  0  0  0  0  0  0  0  0
   13.4153   -7.6592    2.3869 C   0  0  0  0  0  0  0  0  0  0  0  0
   12.4931   -6.8285    3.2951 C   0  0  0  0  0  0  0  0  0  0  0  0
   13.9116   -7.9713    0.0277 C   0  0  0  0  0  0  0  0  0  0  0  0
   13.1504   -8.7060   -0.8826 C   0  0  0  0  0  0  0  0  0  0  0  0
   13.7729   -9.5223   -1.8399 C   0  0  0  0  0  0  0  0  0  0  0  0
   15.1637   -9.5852   -1.8513 C   0  0  0  0  0  0  0  0  0  0  0  0
   15.8427   -8.8359   -0.9149 C   0  0  0  0  0  0  0  0  0  0  0  0
   17.5570   -8.8552   -0.8531 Cl  0  0  0  0  0  0  0  0  0  0  0  0
   15.2563   -8.0490    0.0092 N   0  0  0  0  0  0  0  0  0  0  0  0
   12.9400  -10.3305   -2.7961 C   0  0  0  0  0  0  0  0  0  0  0  0
   11.8177   -9.6701   -3.1880 F   0  0  0  0  0  0  0  0  0  0  0  0
   12.5207  -11.5184   -2.2747 F   0  0  0  0  0  0  0  0  0  0  0  0
   13.6108  -10.6404   -3.9401 F   0  0  0  0  0  0  0  0  0  0  0  0
   13.6872   -0.1096    2.8644 H   0  0  0  0  0  0  0  0  0  0  0  0
   13.2491   -2.1587    4.0812 H   0  0  0  0  0  0  0  0  0  0  0  0
   10.5023   -3.3340    1.1240 H   0  0  0  0  0  0  0  0  0  0  0  0
   13.6433    2.4382   -1.8881 H   0  0  0  0  0  0  0  0  0  0  0  0
   14.4748    0.4539   -0.2610 H   0  0  0  0  0  0  0  0  0  0  0  0
   13.2028    0.2205   -1.3748 H   0  0  0  0  0  0  0  0  0  0  0  0
   15.0543    2.5062    0.6485 H   0  0  0  0  0  0  0  0  0  0  0  0
   15.4662    3.1455   -0.9593 H   0  0  0  0  0  0  0  0  0  0  0  0
   14.6731   -5.1664    2.2758 H   0  0  0  0  0  0  0  0  0  0  0  0
   13.4664   -3.9260    1.8976 H   0  0  0  0  0  0  0  0  0  0  0  0
   13.8833   -5.4574    0.0055 H   0  0  0  0  0  0  0  0  0  0  0  0
   12.2137   -5.4757    0.5770 H   0  0  0  0  0  0  0  0  0  0  0  0
   14.4284   -7.5492    2.7132 H   0  0  0  0  0  0  0  0  0  0  0  0
   13.1296   -8.6890    2.4399 H   0  0  0  0  0  0  0  0  0  0  0  0
   12.5829   -7.1902    4.2981 H   0  0  0  0  0  0  0  0  0  0  0  0
   11.4939   -6.9334    2.9269 H   0  0  0  0  0  0  0  0  0  0  0  0
   12.1205   -8.6486   -0.8516 H   0  0  0  0  0  0  0  0  0  0  0  0
   15.6674  -10.1711   -2.5355 H   0  0  0  0  0  0  0  0  0  0  0  0
  1  2  2  0
  1  3  2  0
  1 21  1  0
  4  5  2  0
  5  6  1  0
  5 38  1  0
  6  7  2  0
  6 39  1  0
  7  1  1  0
  7  8  1  0
  8  9  2  0
  8 40  1  0
  9 10  1  0
  9  4  1  0
 11 12  1  0
 11 41  1  6
 12 13  1  0
 12 42  1  0
 12 43  1  0
 13  4  1  0
 13 14  1  0
 14 15  2  0
 14 16  1  0
 16 11  1  0
 17 18  1  0
 17 19  1  0
 17 20  1  0
 18 11  1  0
 18 44  1  0
 18 45  1  0
 21 22  1  0
 22 23  1  0
 22 46  1  0
 22 47  1  0
 23 24  1  0
 23 48  1  0
 23 49  1  0
 24 27  1  0
 24 25  1  0
 25 26  1  0
 25 50  1  0
 25 51  1  0
 26 21  1  0
 26 52  1  0
 26 53  1  0
 27 28  2  0
 28 29  1  0
 28 54  1  0
 29 34  1  0
 29 30  2  0
 30 31  1  0
 30 55  1  0
 31 32  1  0
 31 33  2  0
 33 27  1  0
 34 35  1  0
 34 36  1  0
 34 37  1  0
M  END
>  <minimizedAffinity>  (10) 
-10.68914

>  <mol_id>  (10) 
138164

>  <source_index>  (10) 
9

>  <layer>  (10) 
L4

>  <uniprot>  (10) 
P43341

>  <paff>  (10) 
6.9585999999999997

>  <smiles>  (10) 
NCC1CN(c2ccc(S(=O)(=O)N3CCN(c4cc(C(F)(F)F)cc(Cl)n4)CC3)cc2F)C(=O)O1

$$$$
