L2:Q15119:3680
     RDKit          3D

 45 47  0  0  0  0  0  0  0  0999 V2000
   -6.1597   -5.3632   -8.4741 C   0  0  0  0  0  0  0  0  0  0  0  0
   -5.8130   -6.2691   -7.2952 C   0  0  1  0  0  0  0  0  0  0  0  0
   -4.3802   -6.8691   -7.5613 C   0  0  0  0  0  0  0  0  0  0  0  0
   -3.7011   -7.3378   -6.3188 C   0  0  0  0  0  0  0  0  0  0  0  0
   -3.9882   -6.9225   -5.0438 C   0  0  0  0  0  0  0  0  0  0  0  0
   -3.0519   -7.5191   -4.2074 C   0  0  0  0  0  0  0  0  0  0  0  0
   -2.2070   -8.2937   -4.9027 N   0  0  0  0  0  0  0  0  0  0  0  0
   -2.6197   -8.1633   -6.1923 N   0  0  0  0  0  0  0  0  0  0  0  0
   -5.1550   -5.9630   -4.8497 C   0  0  0  0  0  0  0  0  0  0  0  0
   -5.5657   -5.3588   -3.7215 O   0  0  0  0  0  0  0  0  0  0  0  0
   -6.6767   -4.5974   -4.0006 N   0  0  0  0  0  0  0  0  0  0  0  0
   -6.9457   -4.7622   -5.3105 C   0  0  0  0  0  0  0  0  0  0  0  0
   -5.9743   -5.6323   -5.9162 C   0  0  0  0  0  0  0  0  0  0  0  0
   -8.1730   -4.0826   -5.8887 C   0  0  1  0  0  0  0  0  0  0  0  0
   -9.0132   -5.0294   -6.7729 C   0  0  0  0  0  0  0  0  0  0  0  0
   -9.0822   -3.6933   -4.8237 O   0  0  0  0  0  0  0  0  0  0  0  0
   -9.7819   -3.1479   -5.2288 H   0  0  0  0  0  0  0  0  0  0  0  0
   -7.7557   -2.8668   -6.7545 C   0  0  0  0  0  0  0  0  0  0  0  0
   -6.4709   -2.4952   -6.5525 F   0  0  0  0  0  0  0  0  0  0  0  0
   -8.5216   -1.7896   -6.4303 F   0  0  0  0  0  0  0  0  0  0  0  0
   -7.9154   -3.0834   -8.0781 F   0  0  0  0  0  0  0  0  0  0  0  0
   -1.8777   -8.8494   -7.2380 C   0  0  0  0  0  0  0  0  0  0  0  0
   -0.6436   -8.0686   -7.7406 C   0  0  0  0  0  0  0  0  0  0  0  0
    0.5463   -9.0270   -7.8524 C   0  0  0  0  0  0  0  0  0  0  0  0
   -0.8839   -7.3911   -9.0926 C   0  0  0  0  0  0  0  0  0  0  0  0
   -0.2627   -7.0627   -6.7936 O   0  0  0  0  0  0  0  0  0  0  0  0
   -1.0900   -6.6075   -6.5154 H   0  0  0  0  0  0  0  0  0  0  0  0
   -6.0152   -5.8981   -9.3895 H   0  0  0  0  0  0  0  0  0  0  0  0
   -5.5254   -4.5016   -8.4605 H   0  0  0  0  0  0  0  0  0  0  0  0
   -7.1816   -5.0550   -8.3986 H   0  0  0  0  0  0  0  0  0  0  0  0
   -6.5349   -7.0575   -7.2473 H   0  0  0  0  0  0  0  0  0  0  0  0
   -3.7740   -6.1138   -8.0163 H   0  0  0  0  0  0  0  0  0  0  0  0
   -4.5044   -7.7207   -8.1971 H   0  0  0  0  0  0  0  0  0  0  0  0
   -3.0123   -7.3835   -3.1851 H   0  0  0  0  0  0  0  0  0  0  0  0
   -9.3153   -5.8798   -6.1981 H   0  0  0  0  0  0  0  0  0  0  0  0
   -8.4263   -5.3529   -7.6070 H   0  0  0  0  0  0  0  0  0  0  0  0
   -9.8803   -4.5116   -7.1263 H   0  0  0  0  0  0  0  0  0  0  0  0
   -2.5347   -9.0120   -8.0668 H   0  0  0  0  0  0  0  0  0  0  0  0
   -1.5173   -9.7642   -6.8158 H   0  0  0  0  0  0  0  0  0  0  0  0
    0.3146   -9.8032   -8.5515 H   0  0  0  0  0  0  0  0  0  0  0  0
    0.7480   -9.4585   -6.8943 H   0  0  0  0  0  0  0  0  0  0  0  0
    1.4074   -8.4887   -8.1896 H   0  0  0  0  0  0  0  0  0  0  0  0
   -1.1699   -8.1272   -9.8146 H   0  0  0  0  0  0  0  0  0  0  0  0
    0.0146   -6.9069   -9.4136 H   0  0  0  0  0  0  0  0  0  0  0  0
   -1.6644   -6.6658   -8.9944 H   0  0  0  0  0  0  0  0  0  0  0  0
  1  2  1  0
  1 28  1  0
  1 29  1  0
  1 30  1  0
  2  3  1  0
  2 31  1  1
  3  4  1  0
  3 32  1  0
  3 33  1  0
  4  5  2  0
  5  6  1  0
  5  9  1  0
  6  7  2  0
  6 34  1  0
  7  8  1  0
  8 22  1  0
  8  4  1  0
  9 10  1  0
 10 11  1  0
 11 12  2  0
 12 14  1  0
 12 13  1  0
 13  2  1  0
 13  9  2  0
 14 15  1  0
 14 16  1  1
 14 18  1  0
 15 35  1  0
 15 36  1  0
 15 37  1  0
 16 17  1  0
 18 19  1  0
 18 20  1  0
 18 21  1  0
 22 23  1  0
 22 38  1  0
 22 39  1  0
 23 24  1  0
 23 25  1  0
 23 26  1  0
 24 40  1  0
 24 41  1  0
 24 42  1  0
 25 43  1  0
 25 44  1  0
 25 45  1  0
 26 27  1  0
M  END
>  <minimizedAffinity>  (1) 
-8.90334

>  <mol_id>  (1) 
3680

>  <source_index>  (1) 
0

>  <layer>  (1) 
L2

>  <uniprot>  (1) 
Q15119

>  <paff>  (1) 
7.8415999999999997

>  <smiles>  (1) 
C[C@H]1Cc2c(cnn2CC(C)(C)O)-c2onc([C@@](C)(O)C(F)(F)F)c21

$$$$
L2:Q15119:9129
     RDKit          3D

 55 59  0  0  0  0  0  0  0  0999 V2000
   -0.4064   -8.5464   -6.1716 C   0  0  0  0  0  0  0  0  0  0  0  0
   -0.8421   -8.3737   -4.7103 C   0  0  1  0  0  0  0  0  0  0  0  0
   -1.4668   -6.9746   -4.5000 C   0  0  0  0  0  0  0  0  0  0  0  0
   -2.8570   -6.9447   -4.9239 N   0  0  0  0  0  0  0  0  0  0  0  0
   -3.4603   -5.8219   -5.3304 N   0  0  0  0  0  0  0  0  0  0  0  0
   -4.7528   -6.1867   -5.4695 C   0  0  0  0  0  0  0  0  0  0  0  0
   -4.9253   -7.5793   -5.1995 C   0  0  0  0  0  0  0  0  0  0  0  0
   -3.6778   -8.0338   -4.8599 C   0  0  0  0  0  0  0  0  0  0  0  0
   -3.1399   -9.2825   -4.4600 C   0  0  0  0  0  0  0  0  0  0  0  0
   -3.6785  -10.4954   -4.1231 C   0  0  0  0  0  0  0  0  0  0  0  0
   -2.6894  -11.3562   -3.7170 N   0  0  0  0  0  0  0  0  0  0  0  0
   -1.5434  -10.6925   -3.8003 C   0  0  0  0  0  0  0  0  0  0  0  0
   -1.7757   -9.4367   -4.3210 N   0  0  0  0  0  0  0  0  0  0  0  0
   -5.8040   -5.1628   -5.8725 C   0  0  1  0  0  0  0  0  0  0  0  0
   -6.2137   -5.3612   -7.3505 C   0  0  0  0  0  0  0  0  0  0  0  0
   -7.2913   -4.3482   -7.7483 C   0  0  0  0  0  0  0  0  0  0  0  0
   -7.5324   -3.3548   -6.5940 C   0  0  1  0  0  0  0  0  0  0  0  0
   -8.0770   -4.1514   -5.3915 C   0  0  0  0  0  0  0  0  0  0  0  0
   -7.0695   -5.2329   -4.9838 C   0  0  0  0  0  0  0  0  0  0  0  0
   -6.1632   -2.7940   -6.1766 C   0  0  0  0  0  0  0  0  0  0  0  0
   -5.2740   -3.8215   -5.7278 O   0  0  0  0  0  0  0  0  0  0  0  0
   -8.4993   -2.2491   -7.0355 C   0  0  0  0  0  0  0  0  0  0  0  0
   -9.3263   -2.6630   -8.1142 O   0  0  0  0  0  0  0  0  0  0  0  0
  -10.0320   -3.2293   -7.7590 H   0  0  0  0  0  0  0  0  0  0  0  0
   -0.2110  -11.2275   -3.3312 C   0  0  1  0  0  0  0  0  0  0  0  0
   -0.3533  -12.6634   -2.8077 C   0  0  0  0  0  0  0  0  0  0  0  0
    0.6679  -11.3000   -4.4799 O   0  0  0  0  0  0  0  0  0  0  0  0
    1.5338  -11.6075   -4.1521 H   0  0  0  0  0  0  0  0  0  0  0  0
    0.3746  -10.3246   -2.2190 C   0  0  0  0  0  0  0  0  0  0  0  0
    0.9807  -11.0992   -1.2780 F   0  0  0  0  0  0  0  0  0  0  0  0
   -0.5539   -9.5795   -1.5838 F   0  0  0  0  0  0  0  0  0  0  0  0
    1.3267   -9.4853   -2.6945 F   0  0  0  0  0  0  0  0  0  0  0  0
    0.2729   -7.7632   -6.4362 H   0  0  0  0  0  0  0  0  0  0  0  0
   -1.2658   -8.5031   -6.8075 H   0  0  0  0  0  0  0  0  0  0  0  0
    0.0775   -9.4934   -6.2900 H   0  0  0  0  0  0  0  0  0  0  0  0
    0.0205   -8.4509   -4.0819 H   0  0  0  0  0  0  0  0  0  0  0  0
   -0.9137   -6.2573   -5.0697 H   0  0  0  0  0  0  0  0  0  0  0  0
   -1.4282   -6.7422   -3.4562 H   0  0  0  0  0  0  0  0  0  0  0  0
   -5.8000   -8.1247   -5.2494 H   0  0  0  0  0  0  0  0  0  0  0  0
   -4.6828  -10.7287   -4.1680 H   0  0  0  0  0  0  0  0  0  0  0  0
   -6.5966   -6.3519   -7.4799 H   0  0  0  0  0  0  0  0  0  0  0  0
   -5.3543   -5.2143   -7.9708 H   0  0  0  0  0  0  0  0  0  0  0  0
   -8.2018   -4.8664   -7.9659 H   0  0  0  0  0  0  0  0  0  0  0  0
   -6.9650   -3.8094   -8.6132 H   0  0  0  0  0  0  0  0  0  0  0  0
   -9.0035   -4.6133   -5.6620 H   0  0  0  0  0  0  0  0  0  0  0  0
   -8.2320   -3.4855   -4.5684 H   0  0  0  0  0  0  0  0  0  0  0  0
   -7.5234   -6.1956   -5.0939 H   0  0  0  0  0  0  0  0  0  0  0  0
   -6.7845   -5.0719   -3.9651 H   0  0  0  0  0  0  0  0  0  0  0  0
   -6.3060   -2.0906   -5.3830 H   0  0  0  0  0  0  0  0  0  0  0  0
   -5.7228   -2.3288   -7.0337 H   0  0  0  0  0  0  0  0  0  0  0  0
   -7.9311   -1.3964   -7.3436 H   0  0  0  0  0  0  0  0  0  0  0  0
   -9.1325   -2.0138   -6.2057 H   0  0  0  0  0  0  0  0  0  0  0  0
   -0.7583  -13.2855   -3.5783 H   0  0  0  0  0  0  0  0  0  0  0  0
   -1.0085  -12.6713   -1.9618 H   0  0  0  0  0  0  0  0  0  0  0  0
    0.6077  -13.0343   -2.5181 H   0  0  0  0  0  0  0  0  0  0  0  0
  1  2  1  0
  1 33  1  0
  1 34  1  0
  1 35  1  0
  2  3  1  0
  2 36  1  1
  3  4  1  0
  3 37  1  0
  3 38  1  0
  4  5  1  0
  5  6  2  0
  6  7  1  0
  7  8  2  0
  7 39  1  0
  8  9  1  0
  8  4  1  0
  9 10  2  0
 10 11  1  0
 10 40  1  0
 11 12  2  0
 12 25  1  0
 12 13  1  0
 13  2  1  0
 13  9  1  0
 14  6  1  1
 14 15  1  0
 15 16  1  0
 15 41  1  0
 15 42  1  0
 16 17  1  0
 16 43  1  0
 16 44  1  0
 17 22  1  6
 17 18  1  0
 17 20  1  0
 18 19  1  0
 18 45  1  0
 18 46  1  0
 19 14  1  0
 19 47  1  0
 19 48  1  0
 20 21  1  0
 20 49  1  0
 20 50  1  0
 21 14  1  0
 22 23  1  0
 22 51  1  0
 22 52  1  0
 23 24  1  0
 25 26  1  0
 25 27  1  6
 25 29  1  0
 26 53  1  0
 26 54  1  0
 26 55  1  0
 27 28  1  0
 29 30  1  0
 29 31  1  0
 29 32  1  0
M  END
>  <minimizedAffinity>  (2) 
-8.91009

>  <mol_id>  (2) 
9129

>  <source_index>  (2) 
1

>  <layer>  (2) 
L2

>  <uniprot>  (2) 
Q15119

>  <paff>  (2) 
7.3053999999999997

>  <smiles>  (2) 
C[C@H]1Cn2nc(C34CCC(CO)(CC3)CO4)cc2-c2cnc([C@@](C)(O)C(F)(F)F)n21

$$$$
L2:Q15119:12707
     RDKit          3D

 52 56  0  0  0  0  0  0  0  0999 V2000
   -2.7168   -8.1717   -3.3219 C   0  0  0  0  0  0  0  0  0  0  0  0
   -3.0162   -8.4428   -4.7942 C   0  0  1  0  0  0  0  0  0  0  0  0
   -3.8361   -7.2250   -5.3473 C   0  0  0  0  0  0  0  0  0  0  0  0
   -3.7728   -7.0490   -6.7836 N   0  0  0  0  0  0  0  0  0  0  0  0
   -2.7331   -7.4961   -7.5477 C   0  0  0  0  0  0  0  0  0  0  0  0
   -2.8931   -7.1044   -8.7864 N   0  0  0  0  0  0  0  0  0  0  0  0
   -4.0708   -6.3801   -8.8326 N   0  0  0  0  0  0  0  0  0  0  0  0
   -4.5856   -6.3451   -7.6192 C   0  0  0  0  0  0  0  0  0  0  0  0
   -1.7182   -8.2802   -6.9521 C   0  0  0  0  0  0  0  0  0  0  0  0
   -0.5696   -8.7035   -7.5202 O   0  0  0  0  0  0  0  0  0  0  0  0
    0.1293   -9.4719   -6.6149 N   0  0  0  0  0  0  0  0  0  0  0  0
   -0.6206   -9.5433   -5.5013 C   0  0  0  0  0  0  0  0  0  0  0  0
   -1.7997   -8.7431   -5.6487 C   0  0  0  0  0  0  0  0  0  0  0  0
   -5.8444   -5.6268   -7.2719 C   0  0  2  0  0  0  0  0  0  0  0  0
   -6.7196   -4.7809   -8.2301 C   0  0  0  0  0  0  0  0  0  0  0  0
   -7.4983   -4.6904   -6.8503 C   0  0  2  0  0  0  0  0  0  0  0  0
   -6.0447   -4.5028   -6.2323 C   0  0  0  0  0  0  0  0  0  0  0  0
   -7.1606   -6.2412   -6.7473 C   0  0  0  0  0  0  0  0  0  0  0  0
   -8.7582   -3.9801   -6.4976 C   0  0  0  0  0  0  0  0  0  0  0  0
   -8.6362   -2.4949   -6.8219 C   0  0  0  0  0  0  0  0  0  0  0  0
   -9.9465   -4.5953   -7.2318 C   0  0  0  0  0  0  0  0  0  0  0  0
   -8.9607   -4.1013   -5.0907 O   0  0  0  0  0  0  0  0  0  0  0  0
   -9.2592   -5.0077   -4.9030 H   0  0  0  0  0  0  0  0  0  0  0  0
   -0.1311  -10.3868   -4.3367 C   0  0  1  0  0  0  0  0  0  0  0  0
   -1.2450  -11.2581   -3.7171 C   0  0  0  0  0  0  0  0  0  0  0  0
    0.8628  -11.3320   -4.8090 O   0  0  0  0  0  0  0  0  0  0  0  0
    0.4165  -11.9055   -5.4584 H   0  0  0  0  0  0  0  0  0  0  0  0
    0.4240   -9.4756   -3.2076 C   0  0  0  0  0  0  0  0  0  0  0  0
   -0.2616   -9.6325   -2.0495 F   0  0  0  0  0  0  0  0  0  0  0  0
    1.7229   -9.7556   -2.9348 F   0  0  0  0  0  0  0  0  0  0  0  0
    0.3656   -8.1598   -3.5238 F   0  0  0  0  0  0  0  0  0  0  0  0
   -3.6309   -7.9713   -2.8031 H   0  0  0  0  0  0  0  0  0  0  0  0
   -2.0673   -7.3254   -3.2400 H   0  0  0  0  0  0  0  0  0  0  0  0
   -2.2424   -9.0284   -2.8908 H   0  0  0  0  0  0  0  0  0  0  0  0
   -3.5852   -9.3471   -4.8521 H   0  0  0  0  0  0  0  0  0  0  0  0
   -3.4611   -6.3351   -4.8866 H   0  0  0  0  0  0  0  0  0  0  0  0
   -4.8615   -7.4229   -5.1142 H   0  0  0  0  0  0  0  0  0  0  0  0
   -7.2067   -5.3016   -9.0279 H   0  0  0  0  0  0  0  0  0  0  0  0
   -6.4021   -3.9677   -8.8489 H   0  0  0  0  0  0  0  0  0  0  0  0
   -5.9183   -4.7669   -5.2031 H   0  0  0  0  0  0  0  0  0  0  0  0
   -5.4895   -3.5919   -6.1490 H   0  0  0  0  0  0  0  0  0  0  0  0
   -7.6869   -6.8964   -7.4096 H   0  0  0  0  0  0  0  0  0  0  0  0
   -7.2840   -6.8752   -5.8942 H   0  0  0  0  0  0  0  0  0  0  0  0
   -8.4831   -2.3709   -7.8736 H   0  0  0  0  0  0  0  0  0  0  0  0
   -7.8058   -2.0806   -6.2893 H   0  0  0  0  0  0  0  0  0  0  0  0
   -9.5341   -1.9912   -6.5303 H   0  0  0  0  0  0  0  0  0  0  0  0
   -9.7983   -4.5063   -8.2877 H   0  0  0  0  0  0  0  0  0  0  0  0
  -10.8428   -4.0817   -6.9529 H   0  0  0  0  0  0  0  0  0  0  0  0
  -10.0315   -5.6292   -6.9694 H   0  0  0  0  0  0  0  0  0  0  0  0
   -1.6534  -11.9019   -4.4679 H   0  0  0  0  0  0  0  0  0  0  0  0
   -2.0175  -10.6271   -3.3297 H   0  0  0  0  0  0  0  0  0  0  0  0
   -0.8361  -11.8491   -2.9243 H   0  0  0  0  0  0  0  0  0  0  0  0
  1  2  1  0
  1 32  1  0
  1 33  1  0
  1 34  1  0
  2  3  1  0
  2 35  1  1
  3  4  1  0
  3 36  1  0
  3 37  1  0
  4  5  1  0
  5  6  2  0
  5  9  1  0
  6  7  1  0
  7  8  2  0
  8  4  1  0
  9 10  1  0
 10 11  1  0
 11 12  2  0
 12 24  1  0
 12 13  1  0
 13  2  1  0
 13  9  2  0
 14  8  1  6
 14 15  1  0
 15 16  1  0
 15 38  1  0
 15 39  1  0
 16 19  1  6
 16 17  1  0
 16 18  1  0
 17 14  1  0
 17 40  1  0
 17 41  1  0
 18 14  1  0
 18 42  1  0
 18 43  1  0
 19 20  1  0
 19 21  1  0
 19 22  1  0
 20 44  1  0
 20 45  1  0
 20 46  1  0
 21 47  1  0
 21 48  1  0
 21 49  1  0
 22 23  1  0
 24 25  1  0
 24 26  1  6
 24 28  1  0
 25 50  1  0
 25 51  1  0
 25 52  1  0
 26 27  1  0
 28 29  1  0
 28 30  1  0
 28 31  1  0
M  END
>  <minimizedAffinity>  (3) 
-9.74215

>  <mol_id>  (3) 
12707

>  <source_index>  (3) 
2

>  <layer>  (3) 
L2

>  <uniprot>  (3) 
Q15119

>  <paff>  (3) 
8.1249000000000002

>  <smiles>  (3) 
C[C@H]1Cn2c(nnc2C23CC(C(C)(C)O)(C2)C3)-c2onc([C@@](C)(O)C(F)(F)F)c21

$$$$
L2:Q15119:27781
     RDKit          3D

 32 34  0  0  0  0  0  0  0  0999 V2000
   -4.1263   -6.6839   -9.1241 C   0  0  0  0  0  0  0  0  0  0  0  0
   -3.6818   -7.3003   -7.8025 C   0  0  1  0  0  0  0  0  0  0  0  0
   -2.2783   -7.9512   -8.0220 C   0  0  0  0  0  0  0  0  0  0  0  0
   -1.5579   -8.2141   -6.7863 N   0  0  0  0  0  0  0  0  0  0  0  0
   -0.5655   -9.1178   -6.7171 N   0  0  0  0  0  0  0  0  0  0  0  0
   -0.0988   -8.9592   -5.4717 C   0  0  0  0  0  0  0  0  0  0  0  0
   -0.7826   -7.9522   -4.7539 C   0  0  0  0  0  0  0  0  0  0  0  0
   -1.7242   -7.4923   -5.6379 C   0  0  0  0  0  0  0  0  0  0  0  0
   -2.7461   -6.5132   -5.5990 C   0  0  0  0  0  0  0  0  0  0  0  0
   -2.9813   -5.6210   -4.6144 O   0  0  0  0  0  0  0  0  0  0  0  0
   -4.0865   -4.8677   -4.9377 N   0  0  0  0  0  0  0  0  0  0  0  0
   -4.5293   -5.3119   -6.1287 C   0  0  0  0  0  0  0  0  0  0  0  0
   -3.6829   -6.3635   -6.6085 C   0  0  0  0  0  0  0  0  0  0  0  0
   -5.7843   -4.6984   -6.7183 C   0  0  1  0  0  0  0  0  0  0  0  0
   -6.2885   -3.4847   -5.9092 C   0  0  0  0  0  0  0  0  0  0  0  0
   -5.5053   -4.1585   -8.0385 O   0  0  0  0  0  0  0  0  0  0  0  0
   -6.3600   -3.8931   -8.4268 H   0  0  0  0  0  0  0  0  0  0  0  0
   -6.9217   -5.7500   -6.7653 C   0  0  0  0  0  0  0  0  0  0  0  0
   -6.7670   -6.6390   -5.7471 F   0  0  0  0  0  0  0  0  0  0  0  0
   -6.9361   -6.4595   -7.9144 F   0  0  0  0  0  0  0  0  0  0  0  0
   -8.1476   -5.1987   -6.6084 F   0  0  0  0  0  0  0  0  0  0  0  0
   -4.0885   -7.4258   -9.8942 H   0  0  0  0  0  0  0  0  0  0  0  0
   -3.4746   -5.8738   -9.3769 H   0  0  0  0  0  0  0  0  0  0  0  0
   -5.1278   -6.3195   -9.0287 H   0  0  0  0  0  0  0  0  0  0  0  0
   -4.4150   -8.0325   -7.5355 H   0  0  0  0  0  0  0  0  0  0  0  0
   -1.6892   -7.2901   -8.6227 H   0  0  0  0  0  0  0  0  0  0  0  0
   -2.4418   -8.8961   -8.4966 H   0  0  0  0  0  0  0  0  0  0  0  0
    0.6777   -9.5135   -5.0782 H   0  0  0  0  0  0  0  0  0  0  0  0
   -0.6123   -7.6357   -3.7865 H   0  0  0  0  0  0  0  0  0  0  0  0
   -5.5190   -2.7427   -5.8623 H   0  0  0  0  0  0  0  0  0  0  0  0
   -6.5431   -3.7976   -4.9182 H   0  0  0  0  0  0  0  0  0  0  0  0
   -7.1530   -3.0723   -6.3862 H   0  0  0  0  0  0  0  0  0  0  0  0
  1  2  1  0
  1 22  1  0
  1 23  1  0
  1 24  1  0
  2  3  1  0
  2 25  1  1
  3  4  1  0
  3 26  1  0
  3 27  1  0
  4  5  1  0
  5  6  2  0
  6  7  1  0
  6 28  1  0
  7  8  2  0
  7 29  1  0
  8  9  1  0
  8  4  1  0
  9 10  1  0
 10 11  1  0
 11 12  2  0
 12 14  1  0
 12 13  1  0
 13  2  1  0
 13  9  2  0
 14 15  1  0
 14 16  1  6
 14 18  1  0
 15 30  1  0
 15 31  1  0
 15 32  1  0
 16 17  1  0
 18 19  1  0
 18 20  1  0
 18 21  1  0
M  END
>  <minimizedAffinity>  (4) 
-7.76486

>  <mol_id>  (4) 
27781

>  <source_index>  (4) 
3

>  <layer>  (4) 
L2

>  <uniprot>  (4) 
Q15119

>  <paff>  (4) 
7.6715999999999998

>  <smiles>  (4) 
C[C@H]1Cn2nccc2-c2onc([C@@](C)(O)C(F)(F)F)c21

$$$$
L2:Q15119:59648
     RDKit          3D

 37 39  0  0  0  0  0  0  0  0999 V2000
   -2.0796   -5.7680   -4.7893 C   0  0  0  0  0  0  0  0  0  0  0  0
   -3.3119   -6.2305   -5.5749 C   0  0  1  0  0  0  0  0  0  0  0  0
   -4.3010   -5.0380   -5.4568 C   0  0  0  0  0  0  0  0  0  0  0  0
   -5.4755   -5.2275   -6.2681 N   0  0  0  0  0  0  0  0  0  0  0  0
   -6.6567   -4.6857   -5.9480 N   0  0  0  0  0  0  0  0  0  0  0  0
   -7.4556   -5.0212   -6.9828 C   0  0  0  0  0  0  0  0  0  0  0  0
   -6.7245   -5.7663   -7.9557 C   0  0  0  0  0  0  0  0  0  0  0  0
   -5.4416   -5.8773   -7.4608 C   0  0  0  0  0  0  0  0  0  0  0  0
   -4.2082   -6.4995   -7.9275 C   0  0  0  0  0  0  0  0  0  0  0  0
   -4.1090   -6.8922   -9.2518 C   0  0  0  0  0  0  0  0  0  0  0  0
   -3.0275   -7.5052   -9.7348 N   0  0  0  0  0  0  0  0  0  0  0  0
   -2.0181   -7.8036   -8.8807 N   0  0  0  0  0  0  0  0  0  0  0  0
   -2.0417   -7.4772   -7.5571 C   0  0  0  0  0  0  0  0  0  0  0  0
   -3.1191   -6.7259   -7.0316 C   0  0  0  0  0  0  0  0  0  0  0  0
   -8.9091   -4.6330   -7.0551 C   0  0  0  0  0  0  0  0  0  0  0  0
   -9.7422   -5.6965   -6.9059 F   0  0  0  0  0  0  0  0  0  0  0  0
   -9.2526   -3.7187   -6.1094 F   0  0  0  0  0  0  0  0  0  0  0  0
   -9.2177   -4.0714   -8.2583 F   0  0  0  0  0  0  0  0  0  0  0  0
   -0.8359   -8.0566   -6.8126 C   0  0  1  0  0  0  0  0  0  0  0  0
    0.1712   -8.7598   -7.7635 C   0  0  0  0  0  0  0  0  0  0  0  0
   -0.0496   -6.9870   -6.2460 O   0  0  0  0  0  0  0  0  0  0  0  0
    0.1612   -6.3707   -6.9714 H   0  0  0  0  0  0  0  0  0  0  0  0
   -1.2852   -9.1445   -5.7995 C   0  0  0  0  0  0  0  0  0  0  0  0
   -1.3831   -8.6962   -4.5296 F   0  0  0  0  0  0  0  0  0  0  0  0
   -2.4987   -9.6557   -6.1241 F   0  0  0  0  0  0  0  0  0  0  0  0
   -0.4173  -10.1873   -5.7773 F   0  0  0  0  0  0  0  0  0  0  0  0
   -2.3769   -5.4591   -3.8089 H   0  0  0  0  0  0  0  0  0  0  0  0
   -1.6199   -4.9465   -5.2980 H   0  0  0  0  0  0  0  0  0  0  0  0
   -1.3818   -6.5755   -4.7125 H   0  0  0  0  0  0  0  0  0  0  0  0
   -3.6675   -7.1445   -5.1471 H   0  0  0  0  0  0  0  0  0  0  0  0
   -3.8039   -4.1446   -5.7724 H   0  0  0  0  0  0  0  0  0  0  0  0
   -4.6130   -4.9679   -4.4357 H   0  0  0  0  0  0  0  0  0  0  0  0
   -7.0821   -6.1446   -8.8468 H   0  0  0  0  0  0  0  0  0  0  0  0
   -4.8999   -6.7038   -9.8874 H   0  0  0  0  0  0  0  0  0  0  0  0
    0.5223   -8.0594   -8.4923 H   0  0  0  0  0  0  0  0  0  0  0  0
   -0.3145   -9.5752   -8.2575 H   0  0  0  0  0  0  0  0  0  0  0  0
    0.9995   -9.1291   -7.1957 H   0  0  0  0  0  0  0  0  0  0  0  0
  1  2  1  0
  1 27  1  0
  1 28  1  0
  1 29  1  0
  2  3  1  0
  2 30  1  1
  3  4  1  0
  3 31  1  0
  3 32  1  0
  4  5  1  0
  5  6  2  0
  6 15  1  0
  6  7  1  0
  7  8  2  0
  7 33  1  0
  8  9  1  0
  8  4  1  0
  9 10  2  0
 10 11  1  0
 10 34  1  0
 11 12  2  0
 12 13  1  0
 13 19  1  0
 13 14  2  0
 14  2  1  0
 14  9  1  0
 15 16  1  0
 15 17  1  0
 15 18  1  0
 19 20  1  0
 19 21  1  1
 19 23  1  0
 20 35  1  0
 20 36  1  0
 20 37  1  0
 21 22  1  0
 23 24  1  0
 23 25  1  0
 23 26  1  0
M  END
>  <minimizedAffinity>  (5) 
-8.85453

>  <mol_id>  (5) 
59648

>  <source_index>  (5) 
4

>  <layer>  (5) 
L2

>  <uniprot>  (5) 
Q15119

>  <paff>  (5) 
7.9546999999999999

>  <smiles>  (5) 
C[C@H]1Cn2nc(C(F)(F)F)cc2-c2cnnc([C@@](C)(O)C(F)(F)F)c21

$$$$
L2:Q15119:82397
     RDKit          3D

 35 37  0  0  0  0  0  0  0  0999 V2000
   -5.2703   -7.5383   -4.6642 C   0  0  0  0  0  0  0  0  0  0  0  0
   -4.3282   -6.4042   -5.0987 C   0  0  1  0  0  0  0  0  0  0  0  0
   -2.8550   -6.7835   -4.7039 C   0  0  0  0  0  0  0  0  0  0  0  0
   -2.1889   -7.6006   -5.7703 C   0  0  0  0  0  0  0  0  0  0  0  0
   -2.5071   -7.5894   -7.1086 C   0  0  0  0  0  0  0  0  0  0  0  0
   -1.5721   -8.3972   -7.7444 C   0  0  0  0  0  0  0  0  0  0  0  0
   -0.7168   -8.9330   -6.8617 N   0  0  0  0  0  0  0  0  0  0  0  0
   -1.1019   -8.4197   -5.6679 N   0  0  0  0  0  0  0  0  0  0  0  0
   -0.3574   -8.7606   -4.4799 C   0  0  0  0  0  0  0  0  0  0  0  0
   -3.6850   -6.7233   -7.5454 C   0  0  0  0  0  0  0  0  0  0  0  0
   -4.1187   -6.3945   -8.7778 O   0  0  0  0  0  0  0  0  0  0  0  0
   -5.1733   -5.5034   -8.6587 N   0  0  0  0  0  0  0  0  0  0  0  0
   -5.3749   -5.3234   -7.3402 C   0  0  0  0  0  0  0  0  0  0  0  0
   -4.4787   -6.1319   -6.5832 C   0  0  0  0  0  0  0  0  0  0  0  0
   -6.4497   -4.3767   -6.8467 C   0  0  1  0  0  0  0  0  0  0  0  0
   -5.9697   -3.4853   -5.6862 C   0  0  0  0  0  0  0  0  0  0  0  0
   -6.8233   -3.4598   -7.9099 O   0  0  0  0  0  0  0  0  0  0  0  0
   -6.0294   -2.9346   -8.1164 H   0  0  0  0  0  0  0  0  0  0  0  0
   -7.6797   -5.1898   -6.3614 C   0  0  0  0  0  0  0  0  0  0  0  0
   -7.7015   -6.4446   -6.8735 F   0  0  0  0  0  0  0  0  0  0  0  0
   -8.8428   -4.5951   -6.7295 F   0  0  0  0  0  0  0  0  0  0  0  0
   -7.7135   -5.3085   -5.0125 F   0  0  0  0  0  0  0  0  0  0  0  0
   -5.1524   -7.7181   -3.6160 H   0  0  0  0  0  0  0  0  0  0  0  0
   -5.0314   -8.4284   -5.2078 H   0  0  0  0  0  0  0  0  0  0  0  0
   -6.2829   -7.2579   -4.8663 H   0  0  0  0  0  0  0  0  0  0  0  0
   -4.5839   -5.4962   -4.5936 H   0  0  0  0  0  0  0  0  0  0  0  0
   -2.8738   -7.3481   -3.7952 H   0  0  0  0  0  0  0  0  0  0  0  0
   -2.2986   -5.8779   -4.5807 H   0  0  0  0  0  0  0  0  0  0  0  0
   -1.5402   -8.5630   -8.7625 H   0  0  0  0  0  0  0  0  0  0  0  0
    0.4395   -9.4266   -4.7373 H   0  0  0  0  0  0  0  0  0  0  0  0
   -1.0074   -9.2373   -3.7762 H   0  0  0  0  0  0  0  0  0  0  0  0
    0.0477   -7.8707   -4.0453 H   0  0  0  0  0  0  0  0  0  0  0  0
   -5.1206   -2.9157   -6.0016 H   0  0  0  0  0  0  0  0  0  0  0  0
   -5.6977   -4.0997   -4.8535 H   0  0  0  0  0  0  0  0  0  0  0  0
   -6.7573   -2.8212   -5.3972 H   0  0  0  0  0  0  0  0  0  0  0  0
  1  2  1  0
  1 23  1  0
  1 24  1  0
  1 25  1  0
  2  3  1  0
  2 26  1  1
  3  4  1  0
  3 27  1  0
  3 28  1  0
  4  5  2  0
  5  6  1  0
  5 10  1  0
  6  7  2  0
  6 29  1  0
  7  8  1  0
  8  9  1  0
  8  4  1  0
  9 30  1  0
  9 31  1  0
  9 32  1  0
 10 11  1  0
 11 12  1  0
 12 13  2  0
 13 15  1  0
 13 14  1  0
 14  2  1  0
 14 10  2  0
 15 16  1  0
 15 17  1  6
 15 19  1  0
 16 33  1  0
 16 34  1  0
 16 35  1  0
 17 18  1  0
 19 20  1  0
 19 21  1  0
 19 22  1  0
M  END
>  <minimizedAffinity>  (6) 
-7.73144

>  <mol_id>  (6) 
82397

>  <source_index>  (6) 
5

>  <layer>  (6) 
L2

>  <uniprot>  (6) 
Q15119

>  <paff>  (6) 
7.5952000000000002

>  <smiles>  (6) 
C[C@H]1Cc2c(cnn2C)-c2onc([C@@](C)(O)C(F)(F)F)c21

$$$$
L2:Q15119:112986
     RDKit          3D

 46 50  0  0  0  0  0  0  0  0999 V2000
   -1.7683   -6.0526   -5.7622 C   0  0  0  0  0  0  0  0  0  0  0  0
   -2.4374   -7.3643   -6.1949 C   0  0  1  0  0  0  0  0  0  0  0  0
   -3.8615   -7.4588   -5.5968 C   0  0  0  0  0  0  0  0  0  0  0  0
   -4.8040   -6.6592   -6.3603 N   0  0  0  0  0  0  0  0  0  0  0  0
   -5.9120   -6.1436   -5.8209 N   0  0  0  0  0  0  0  0  0  0  0  0
   -6.5242   -5.5506   -6.8567 C   0  0  0  0  0  0  0  0  0  0  0  0
   -5.7783   -5.7146   -8.0593 C   0  0  0  0  0  0  0  0  0  0  0  0
   -4.6642   -6.4269   -7.6972 C   0  0  0  0  0  0  0  0  0  0  0  0
   -3.5270   -6.9352   -8.3745 C   0  0  0  0  0  0  0  0  0  0  0  0
   -3.1840   -7.0672   -9.6920 C   0  0  0  0  0  0  0  0  0  0  0  0
   -1.9874   -7.7275   -9.8016 N   0  0  0  0  0  0  0  0  0  0  0  0
   -1.5800   -8.0004   -8.5651 C   0  0  0  0  0  0  0  0  0  0  0  0
   -2.4677   -7.4628   -7.6586 N   0  0  0  0  0  0  0  0  0  0  0  0
   -7.7101   -4.9020   -6.7870 N   0  0  0  0  0  0  0  0  0  0  0  0
   -8.1257   -4.2434   -5.5479 C   0  0  0  0  0  0  0  0  0  0  0  0
   -8.9956   -3.1456   -6.1754 C   0  0  2  0  0  0  0  0  0  0  0  0
   -9.7986   -3.8840   -7.2979 C   0  0  0  0  0  0  0  0  0  0  0  0
   -8.3340   -4.1150   -7.8267 C   0  0  1  0  0  0  0  0  0  0  0  0
   -8.1335   -2.6217   -7.3764 C   0  0  0  0  0  0  0  0  0  0  0  0
   -0.3453   -8.8466   -8.3066 C   0  0  1  0  0  0  0  0  0  0  0  0
   -0.3112   -9.3618   -6.8661 C   0  0  0  0  0  0  0  0  0  0  0  0
   -0.5286  -10.0391   -9.1234 O   0  0  0  0  0  0  0  0  0  0  0  0
   -1.3735   -9.9045   -9.6067 H   0  0  0  0  0  0  0  0  0  0  0  0
    0.9820   -8.1571   -8.6801 C   0  0  0  0  0  0  0  0  0  0  0  0
    1.0461   -7.8934  -10.0098 F   0  0  0  0  0  0  0  0  0  0  0  0
    2.0639   -8.9075   -8.3717 F   0  0  0  0  0  0  0  0  0  0  0  0
    1.1249   -6.9633   -8.0548 F   0  0  0  0  0  0  0  0  0  0  0  0
   -1.7536   -5.9952   -4.6938 H   0  0  0  0  0  0  0  0  0  0  0  0
   -2.3191   -5.2243   -6.1564 H   0  0  0  0  0  0  0  0  0  0  0  0
   -0.7657   -6.0238   -6.1347 H   0  0  0  0  0  0  0  0  0  0  0  0
   -1.8650   -8.1878   -5.8219 H   0  0  0  0  0  0  0  0  0  0  0  0
   -3.8406   -7.1050   -4.5872 H   0  0  0  0  0  0  0  0  0  0  0  0
   -4.1771   -8.4806   -5.6310 H   0  0  0  0  0  0  0  0  0  0  0  0
   -6.0239   -5.3710   -9.0009 H   0  0  0  0  0  0  0  0  0  0  0  0
   -3.7437   -6.7207  -10.4868 H   0  0  0  0  0  0  0  0  0  0  0  0
   -7.2964   -3.8425   -5.0034 H   0  0  0  0  0  0  0  0  0  0  0  0
   -8.6047   -4.8660   -4.8214 H   0  0  0  0  0  0  0  0  0  0  0  0
   -9.4265   -2.5365   -5.4085 H   0  0  0  0  0  0  0  0  0  0  0  0
  -10.4294   -3.2715   -7.9077 H   0  0  0  0  0  0  0  0  0  0  0  0
  -10.5277   -4.6504   -7.1368 H   0  0  0  0  0  0  0  0  0  0  0  0
   -8.0687   -4.5094   -8.7853 H   0  0  0  0  0  0  0  0  0  0  0  0
   -8.5890   -1.8769   -7.9950 H   0  0  0  0  0  0  0  0  0  0  0  0
   -7.1921   -2.1202   -7.2921 H   0  0  0  0  0  0  0  0  0  0  0  0
   -1.2427   -9.8346   -6.6343 H   0  0  0  0  0  0  0  0  0  0  0  0
   -0.1513   -8.5417   -6.1977 H   0  0  0  0  0  0  0  0  0  0  0  0
    0.4843  -10.0694   -6.7591 H   0  0  0  0  0  0  0  0  0  0  0  0
  1  2  1  0
  1 28  1  0
  1 29  1  0
  1 30  1  0
  2  3  1  0
  2 31  1  1
  3  4  1  0
  3 32  1  0
  3 33  1  0
  4  5  1  0
  5  6  2  0
  6 14  1  0
  6  7  1  0
  7  8  2  0
  7 34  1  0
  8  9  1  0
  8  4  1  0
  9 10  2  0
 10 11  1  0
 10 35  1  0
 11 12  2  0
 12 20  1  0
 12 13  1  0
 13  2  1  0
 13  9  1  0
 14 15  1  0
 15 16  1  0
 15 36  1  0
 15 37  1  0
 16 17  1  0
 16 38  1  1
 17 18  1  0
 17 39  1  0
 17 40  1  0
 18 19  1  0
 18 14  1  0
 18 41  1  6
 19 16  1  0
 19 42  1  0
 19 43  1  0
 20 21  1  0
 20 22  1  6
 20 24  1  0
 21 44  1  0
 21 45  1  0
 21 46  1  0
 22 23  1  0
 24 25  1  0
 24 26  1  0
 24 27  1  0
M  END
>  <minimizedAffinity>  (7) 
-9.24678

>  <mol_id>  (7) 
112986

>  <source_index>  (7) 
6

>  <layer>  (7) 
L2

>  <uniprot>  (7) 
Q15119

>  <paff>  (7) 
7.7305000000000001

>  <smiles>  (7) 
C[C@H]1Cn2nc(N3CC4CC3C4)cc2-c2cnc([C@@](C)(O)C(F)(F)F)n21

$$$$
L2:Q15119:113276
     RDKit          3D

 54 58  0  0  0  0  0  0  0  0999 V2000
   -0.1093   -9.2934   -6.5662 C   0  0  0  0  0  0  0  0  0  0  0  0
   -0.1796   -8.6892   -5.1576 C   0  0  1  0  0  0  0  0  0  0  0  0
   -0.7579   -7.2564   -5.2173 C   0  0  0  0  0  0  0  0  0  0  0  0
   -2.2083   -7.2757   -5.3122 N   0  0  0  0  0  0  0  0  0  0  0  0
   -2.9079   -6.2915   -5.8903 N   0  0  0  0  0  0  0  0  0  0  0  0
   -4.1892   -6.6513   -5.6889 C   0  0  0  0  0  0  0  0  0  0  0  0
   -4.2756   -7.8880   -4.9825 C   0  0  0  0  0  0  0  0  0  0  0  0
   -2.9757   -8.2642   -4.7661 C   0  0  0  0  0  0  0  0  0  0  0  0
   -2.3391   -9.3625   -4.1356 C   0  0  0  0  0  0  0  0  0  0  0  0
   -2.7635  -10.3862   -3.3328 C   0  0  0  0  0  0  0  0  0  0  0  0
   -1.6920  -11.1390   -2.9213 N   0  0  0  0  0  0  0  0  0  0  0  0
   -0.6095  -10.6029   -3.4689 C   0  0  0  0  0  0  0  0  0  0  0  0
   -0.9769   -9.5420   -4.2694 N   0  0  0  0  0  0  0  0  0  0  0  0
   -5.3083   -5.7750   -6.2123 C   0  0  1  0  0  0  0  0  0  0  0  0
   -5.1470   -4.2890   -5.7896 C   0  0  0  0  0  0  0  0  0  0  0  0
   -6.2961   -3.4254   -6.3284 C   0  0  0  0  0  0  0  0  0  0  0  0
   -7.2897   -4.2829   -7.1344 C   0  0  1  0  0  0  0  0  0  0  0  0
   -6.5207   -4.9416   -8.2961 C   0  0  0  0  0  0  0  0  0  0  0  0
   -5.3673   -5.8031   -7.7648 C   0  0  0  0  0  0  0  0  0  0  0  0
   -7.8277   -5.3946   -6.2122 C   0  0  0  0  0  0  0  0  0  0  0  0
   -6.6803   -6.2611   -5.6744 C   0  0  0  0  0  0  0  0  0  0  0  0
   -8.3949   -3.4522   -7.6463 C   0  0  0  0  0  0  0  0  0  0  0  0
   -9.2656   -2.8012   -8.0528 N   0  0  0  0  0  0  0  0  0  0  0  0
    0.8027  -11.0687   -3.2018 C   0  0  1  0  0  0  0  0  0  0  0  0
    0.8071  -12.4907   -2.6225 C   0  0  0  0  0  0  0  0  0  0  0  0
    1.4887  -11.1463   -4.4737 O   0  0  0  0  0  0  0  0  0  0  0  0
    2.3957  -11.4521   -4.2860 H   0  0  0  0  0  0  0  0  0  0  0  0
    1.5163  -10.1059   -2.2249 C   0  0  0  0  0  0  0  0  0  0  0  0
    1.2481  -10.4759   -0.9433 F   0  0  0  0  0  0  0  0  0  0  0  0
    1.1276   -8.8202   -2.3580 F   0  0  0  0  0  0  0  0  0  0  0  0
    2.8652  -10.1480   -2.3619 F   0  0  0  0  0  0  0  0  0  0  0  0
    0.4754   -8.6580   -7.1981 H   0  0  0  0  0  0  0  0  0  0  0  0
   -1.0978   -9.3820   -6.9661 H   0  0  0  0  0  0  0  0  0  0  0  0
    0.3435  -10.2616   -6.5168 H   0  0  0  0  0  0  0  0  0  0  0  0
    0.8116   -8.6340   -4.7583 H   0  0  0  0  0  0  0  0  0  0  0  0
   -0.3592   -6.7550   -6.0744 H   0  0  0  0  0  0  0  0  0  0  0  0
   -0.4851   -6.7444   -4.3182 H   0  0  0  0  0  0  0  0  0  0  0  0
   -5.1308   -8.3899   -4.6967 H   0  0  0  0  0  0  0  0  0  0  0  0
   -3.7463  -10.5661   -3.0743 H   0  0  0  0  0  0  0  0  0  0  0  0
   -4.2210   -3.9160   -6.1748 H   0  0  0  0  0  0  0  0  0  0  0  0
   -5.1611   -4.2395   -4.7208 H   0  0  0  0  0  0  0  0  0  0  0  0
   -5.8949   -2.6630   -6.9629 H   0  0  0  0  0  0  0  0  0  0  0  0
   -6.8132   -2.9858   -5.5012 H   0  0  0  0  0  0  0  0  0  0  0  0
   -6.1244   -4.1781   -8.9324 H   0  0  0  0  0  0  0  0  0  0  0  0
   -7.1942   -5.5682   -8.8425 H   0  0  0  0  0  0  0  0  0  0  0  0
   -4.4442   -5.4284   -8.1553 H   0  0  0  0  0  0  0  0  0  0  0  0
   -5.5293   -6.8134   -8.0778 H   0  0  0  0  0  0  0  0  0  0  0  0
   -8.5040   -6.0123   -6.7654 H   0  0  0  0  0  0  0  0  0  0  0  0
   -8.3303   -4.9396   -5.3844 H   0  0  0  0  0  0  0  0  0  0  0  0
   -6.8356   -7.2746   -5.9804 H   0  0  0  0  0  0  0  0  0  0  0  0
   -6.6711   -6.1857   -4.6071 H   0  0  0  0  0  0  0  0  0  0  0  0
    0.3126  -13.1538   -3.3012 H   0  0  0  0  0  0  0  0  0  0  0  0
    0.2949  -12.4947   -1.6830 H   0  0  0  0  0  0  0  0  0  0  0  0
    1.8169  -12.8145   -2.4796 H   0  0  0  0  0  0  0  0  0  0  0  0
  1  2  1  0
  1 32  1  0
  1 33  1  0
  1 34  1  0
  2  3  1  0
  2 35  1  1
  3  4  1  0
  3 36  1  0
  3 37  1  0
  4  5  1  0
  5  6  2  0
  6  7  1  0
  7  8  2  0
  7 38  1  0
  8  9  1  0
  8  4  1  0
  9 10  2  0
 10 11  1  0
 10 39  1  0
 11 12  2  0
 12 24  1  0
 12 13  1  0
 13  2  1  0
 13  9  1  0
 14  6  1  1
 14 15  1  0
 15 16  1  0
 15 40  1  0
 15 41  1  0
 16 17  1  0
 16 42  1  0
 16 43  1  0
 17 22  1  6
 17 18  1  0
 17 20  1  0
 18 19  1  0
 18 44  1  0
 18 45  1  0
 19 14  1  0
 19 46  1  0
 19 47  1  0
 20 21  1  0
 20 48  1  0
 20 49  1  0
 21 14  1  0
 21 50  1  0
 21 51  1  0
 22 23  3  0
 24 25  1  0
 24 26  1  6
 24 28  1  0
 25 52  1  0
 25 53  1  0
 25 54  1  0
 26 27  1  0
 28 29  1  0
 28 30  1  0
 28 31  1  0
M  END
>  <minimizedAffinity>  (8) 
-9.17724

>  <mol_id>  (8) 
113276

>  <source_index>  (8) 
7

>  <layer>  (8) 
L2

>  <uniprot>  (8) 
Q15119

>  <paff>  (8) 
8.1805000000000003

>  <smiles>  (8) 
C[C@H]1Cn2nc(C34CCC(C#N)(CC3)CC4)cc2-c2cnc([C@@](C)(O)C(F)(F)F)n21

$$$$
L2:Q15119:120756
     RDKit          3D

 52 56  0  0  0  0  0  0  0  0999 V2000
   -0.1129   -9.2216   -6.3789 C   0  0  0  0  0  0  0  0  0  0  0  0
   -0.2651   -8.5779   -4.9953 C   0  0  1  0  0  0  0  0  0  0  0  0
   -0.8451   -7.1509   -5.1242 C   0  0  0  0  0  0  0  0  0  0  0  0
   -2.2913   -7.1704   -5.2414 N   0  0  0  0  0  0  0  0  0  0  0  0
   -2.9720   -6.2014   -5.8676 N   0  0  0  0  0  0  0  0  0  0  0  0
   -4.2587   -6.5476   -5.6655 C   0  0  0  0  0  0  0  0  0  0  0  0
   -4.3628   -7.7618   -4.9279 C   0  0  0  0  0  0  0  0  0  0  0  0
   -3.0686   -8.1372   -4.6813 C   0  0  0  0  0  0  0  0  0  0  0  0
   -2.4499   -9.2290   -4.0238 C   0  0  0  0  0  0  0  0  0  0  0  0
   -2.9064  -10.2383   -3.2194 C   0  0  0  0  0  0  0  0  0  0  0  0
   -1.8606  -11.0306   -2.8210 N   0  0  0  0  0  0  0  0  0  0  0  0
   -0.7576  -10.5263   -3.3590 C   0  0  0  0  0  0  0  0  0  0  0  0
   -1.0865   -9.4262   -4.1275 N   0  0  0  0  0  0  0  0  0  0  0  0
   -5.3866   -5.6905   -6.2005 C   0  0  1  0  0  0  0  0  0  0  0  0
   -5.4748   -5.7849   -7.7435 C   0  0  0  0  0  0  0  0  0  0  0  0
   -6.6365   -4.9306   -8.2684 C   0  0  0  0  0  0  0  0  0  0  0  0
   -7.3053   -4.1858   -7.0987 C   0  0  1  0  0  0  0  0  0  0  0  0
   -7.8760   -5.2311   -6.1230 C   0  0  0  0  0  0  0  0  0  0  0  0
   -6.7376   -6.0993   -5.5701 C   0  0  0  0  0  0  0  0  0  0  0  0
   -6.2074   -3.4182   -6.3532 C   0  0  0  0  0  0  0  0  0  0  0  0
   -5.1692   -4.2928   -5.8698 O   0  0  0  0  0  0  0  0  0  0  0  0
   -8.3514   -3.2714   -7.5760 C   0  0  0  0  0  0  0  0  0  0  0  0
   -9.1726   -2.5434   -7.9556 N   0  0  0  0  0  0  0  0  0  0  0  0
    0.6160  -11.1198   -3.1336 C   0  0  1  0  0  0  0  0  0  0  0  0
    0.4912  -12.5292   -2.5372 C   0  0  0  0  0  0  0  0  0  0  0  0
    1.2777  -11.2944   -4.4107 O   0  0  0  0  0  0  0  0  0  0  0  0
    2.2052  -11.5261   -4.2292 H   0  0  0  0  0  0  0  0  0  0  0  0
    1.4544  -10.2129   -2.2031 C   0  0  0  0  0  0  0  0  0  0  0  0
    1.2303  -10.5880   -0.9096 F   0  0  0  0  0  0  0  0  0  0  0  0
    1.1525   -8.9021   -2.2881 F   0  0  0  0  0  0  0  0  0  0  0  0
    2.7873  -10.3561   -2.4138 F   0  0  0  0  0  0  0  0  0  0  0  0
    0.4884   -8.5920   -7.0010 H   0  0  0  0  0  0  0  0  0  0  0  0
   -1.0785   -9.3446   -6.8232 H   0  0  0  0  0  0  0  0  0  0  0  0
    0.3576  -10.1773   -6.2779 H   0  0  0  0  0  0  0  0  0  0  0  0
    0.7000   -8.4909   -4.5414 H   0  0  0  0  0  0  0  0  0  0  0  0
   -0.4324   -6.6858   -5.9950 H   0  0  0  0  0  0  0  0  0  0  0  0
   -0.5884   -6.6044   -4.2409 H   0  0  0  0  0  0  0  0  0  0  0  0
   -5.2249   -8.2517   -4.6418 H   0  0  0  0  0  0  0  0  0  0  0  0
   -3.8928  -10.3818   -2.9521 H   0  0  0  0  0  0  0  0  0  0  0  0
   -5.6323   -6.8050   -8.0255 H   0  0  0  0  0  0  0  0  0  0  0  0
   -4.5606   -5.4227   -8.1653 H   0  0  0  0  0  0  0  0  0  0  0  0
   -7.3560   -5.5634   -8.7446 H   0  0  0  0  0  0  0  0  0  0  0  0
   -6.2612   -4.2180   -8.9729 H   0  0  0  0  0  0  0  0  0  0  0  0
   -8.5787   -5.8521   -6.6382 H   0  0  0  0  0  0  0  0  0  0  0  0
   -8.3646   -4.7303   -5.3135 H   0  0  0  0  0  0  0  0  0  0  0  0
   -6.9357   -7.1258   -5.7979 H   0  0  0  0  0  0  0  0  0  0  0  0
   -6.6804   -5.9597   -4.5108 H   0  0  0  0  0  0  0  0  0  0  0  0
   -6.6463   -2.9099   -5.5202 H   0  0  0  0  0  0  0  0  0  0  0  0
   -5.7639   -2.7270   -7.0391 H   0  0  0  0  0  0  0  0  0  0  0  0
   -0.0909  -13.1434   -3.1921 H   0  0  0  0  0  0  0  0  0  0  0  0
    0.0116  -12.4713   -1.5825 H   0  0  0  0  0  0  0  0  0  0  0  0
    1.4659  -12.9551   -2.4214 H   0  0  0  0  0  0  0  0  0  0  0  0
  1  2  1  0
  1 32  1  0
  1 33  1  0
  1 34  1  0
  2  3  1  0
  2 35  1  1
  3  4  1  0
  3 36  1  0
  3 37  1  0
  4  5  1  0
  5  6  2  0
  6  7  1  0
  7  8  2  0
  7 38  1  0
  8  9  1  0
  8  4  1  0
  9 10  2  0
 10 11  1  0
 10 39  1  0
 11 12  2  0
 12 24  1  0
 12 13  1  0
 13  2  1  0
 13  9  1  0
 14  6  1  1
 14 15  1  0
 15 16  1  0
 15 40  1  0
 15 41  1  0
 16 17  1  0
 16 42  1  0
 16 43  1  0
 17 22  1  6
 17 18  1  0
 17 20  1  0
 18 19  1  0
 18 44  1  0
 18 45  1  0
 19 14  1  0
 19 46  1  0
 19 47  1  0
 20 21  1  0
 20 48  1  0
 20 49  1  0
 21 14  1  0
 22 23  3  0
 24 25  1  0
 24 26  1  6
 24 28  1  0
 25 50  1  0
 25 51  1  0
 25 52  1  0
 26 27  1  0
 28 29  1  0
 28 30  1  0
 28 31  1  0
M  END
>  <minimizedAffinity>  (9) 
-9.07414

>  <mol_id>  (9) 
120756

>  <source_index>  (9) 
8

>  <layer>  (9) 
L2

>  <uniprot>  (9) 
Q15119

>  <paff>  (9) 
7.4763000000000002

>  <smiles>  (9) 
C[C@H]1Cn2nc(C34CCC(C#N)(CC3)CO4)cc2-c2cnc([C@@](C)(O)C(F)(F)F)n21

$$$$
L2:Q15119:122387
     RDKit          3D

 54 58  0  0  0  0  0  0  0  0999 V2000
   -1.1372   -7.3200   -6.7723 C   0  0  0  0  0  0  0  0  0  0  0  0
   -1.3674   -7.2387   -5.2571 C   0  0  1  0  0  0  0  0  0  0  0  0
   -2.1203   -5.9349   -4.9012 C   0  0  0  0  0  0  0  0  0  0  0  0
   -3.5424   -6.0628   -5.1690 N   0  0  0  0  0  0  0  0  0  0  0  0
   -4.3192   -5.0127   -5.4576 N   0  0  0  0  0  0  0  0  0  0  0  0
   -5.5473   -5.5512   -5.5648 C   0  0  0  0  0  0  0  0  0  0  0  0
   -5.5245   -6.9565   -5.3321 C   0  0  0  0  0  0  0  0  0  0  0  0
   -4.2084   -7.2519   -5.0888 C   0  0  0  0  0  0  0  0  0  0  0  0
   -3.4827   -8.4314   -4.7830 C   0  0  0  0  0  0  0  0  0  0  0  0
   -3.8401   -9.7038   -4.4300 C   0  0  0  0  0  0  0  0  0  0  0  0
   -2.7216  -10.4437   -4.1447 N   0  0  0  0  0  0  0  0  0  0  0  0
   -1.6725   -9.6458   -4.3246 C   0  0  0  0  0  0  0  0  0  0  0  0
   -2.0997   -8.4205   -4.7882 N   0  0  0  0  0  0  0  0  0  0  0  0
   -6.7150   -4.6811   -5.8783 C   0  0  2  0  0  0  0  0  0  0  0  0
   -6.3513   -3.3863   -6.6443 C   0  0  0  0  0  0  0  0  0  0  0  0
   -7.6908   -2.9382   -7.2460 C   0  0  0  0  0  0  0  0  0  0  0  0
   -8.6726   -4.0269   -6.7661 C   0  0  2  0  0  0  0  0  0  0  0  0
   -8.8962   -3.8521   -5.2464 C   0  0  0  0  0  0  0  0  0  0  0  0
   -7.5554   -4.2924   -4.6405 C   0  0  0  0  0  0  0  0  0  0  0  0
   -7.7906   -5.2809   -6.7979 C   0  0  0  0  0  0  0  0  0  0  0  0
   -9.9485   -4.0939   -7.5857 C   0  0  0  0  0  0  0  0  0  0  0  0
  -10.9075   -4.9207   -6.9408 O   0  0  0  0  0  0  0  0  0  0  0  0
  -11.7074   -4.9158   -7.4941 H   0  0  0  0  0  0  0  0  0  0  0  0
   -0.2653  -10.0964   -3.9727 C   0  0  1  0  0  0  0  0  0  0  0  0
   -0.1913  -11.6143   -3.7941 C   0  0  0  0  0  0  0  0  0  0  0  0
    0.5264   -9.8237   -5.1653 O   0  0  0  0  0  0  0  0  0  0  0  0
   -0.0905   -9.4045   -5.8050 H   0  0  0  0  0  0  0  0  0  0  0  0
    0.3473   -9.3653   -2.7616 C   0  0  0  0  0  0  0  0  0  0  0  0
    0.4306   -8.0285   -2.9470 F   0  0  0  0  0  0  0  0  0  0  0  0
    1.5945   -9.8139   -2.4783 F   0  0  0  0  0  0  0  0  0  0  0  0
   -0.3871   -9.5668   -1.6381 F   0  0  0  0  0  0  0  0  0  0  0  0
   -0.6028   -6.4524   -7.0989 H   0  0  0  0  0  0  0  0  0  0  0  0
   -2.0809   -7.3676   -7.2744 H   0  0  0  0  0  0  0  0  0  0  0  0
   -0.5674   -8.1966   -7.0000 H   0  0  0  0  0  0  0  0  0  0  0  0
   -0.4196   -7.2209   -4.7608 H   0  0  0  0  0  0  0  0  0  0  0  0
   -1.7251   -5.1319   -5.4876 H   0  0  0  0  0  0  0  0  0  0  0  0
   -1.9871   -5.7394   -3.8577 H   0  0  0  0  0  0  0  0  0  0  0  0
   -6.3238   -7.6091   -5.3441 H   0  0  0  0  0  0  0  0  0  0  0  0
   -4.8094  -10.0552   -4.3850 H   0  0  0  0  0  0  0  0  0  0  0  0
   -5.6341   -3.5853   -7.4130 H   0  0  0  0  0  0  0  0  0  0  0  0
   -5.9060   -2.6422   -6.0175 H   0  0  0  0  0  0  0  0  0  0  0  0
   -7.6414   -2.9097   -8.3145 H   0  0  0  0  0  0  0  0  0  0  0  0
   -7.9774   -1.9520   -6.9458 H   0  0  0  0  0  0  0  0  0  0  0  0
   -9.6955   -4.4747   -4.9022 H   0  0  0  0  0  0  0  0  0  0  0  0
   -9.1713   -2.8543   -4.9752 H   0  0  0  0  0  0  0  0  0  0  0  0
   -7.6866   -5.1302   -3.9880 H   0  0  0  0  0  0  0  0  0  0  0  0
   -7.0956   -3.5316   -4.0449 H   0  0  0  0  0  0  0  0  0  0  0  0
   -7.4256   -5.5143   -7.7763 H   0  0  0  0  0  0  0  0  0  0  0  0
   -8.2304   -6.2156   -6.5190 H   0  0  0  0  0  0  0  0  0  0  0  0
   -9.7267   -4.4981   -8.5513 H   0  0  0  0  0  0  0  0  0  0  0  0
  -10.3505   -3.1072   -7.6842 H   0  0  0  0  0  0  0  0  0  0  0  0
   -0.6225  -12.0952   -4.6472 H   0  0  0  0  0  0  0  0  0  0  0  0
   -0.7313  -11.8967   -2.9146 H   0  0  0  0  0  0  0  0  0  0  0  0
    0.8316  -11.9124   -3.6957 H   0  0  0  0  0  0  0  0  0  0  0  0
  1  2  1  0
  1 32  1  0
  1 33  1  0
  1 34  1  0
  2  3  1  0
  2 35  1  1
  3  4  1  0
  3 36  1  0
  3 37  1  0
  4  5  1  0
  5  6  2  0
  6  7  1  0
  7  8  2  0
  7 38  1  0
  8  9  1  0
  8  4  1  0
  9 10  2  0
 10 11  1  0
 10 39  1  0
 11 12  2  0
 12 24  1  0
 12 13  1  0
 13  2  1  0
 13  9  1  0
 14  6  1  1
 14 15  1  0
 15 16  1  0
 15 40  1  0
 15 41  1  0
 16 17  1  0
 16 42  1  0
 16 43  1  0
 17 21  1  6
 17 18  1  0
 17 20  1  0
 18 19  1  0
 18 44  1  0
 18 45  1  0
 19 14  1  0
 19 46  1  0
 19 47  1  0
 20 14  1  0
 20 48  1  0
 20 49  1  0
 21 22  1  0
 21 50  1  0
 21 51  1  0
 22 23  1  0
 24 25  1  0
 24 26  1  6
 24 28  1  0
 25 52  1  0
 25 53  1  0
 25 54  1  0
 26 27  1  0
 28 29  1  0
 28 30  1  0
 28 31  1  0
M  END
>  <minimizedAffinity>  (10) 
-8.94842

>  <mol_id>  (10) 
122387

>  <source_index>  (10) 
9

>  <layer>  (10) 
L2

>  <uniprot>  (10) 
Q15119

>  <paff>  (10) 
7.9585999999999997

>  <smiles>  (10) 
C[C@H]1Cn2nc(C34CCC(CO)(CC3)C4)cc2-c2cnc([C@@](C)(O)C(F)(F)F)n21

$$$$
