L1:P06239:15824
     RDKit          3D

 58 62  0  0  0  0  0  0  0  0999 V2000
   25.7292   41.9153   86.4423 C   0  0  0  0  0  0  0  0  0  0  0  0
   26.3066   43.1321   86.1018 C   0  0  0  0  0  0  0  0  0  0  0  0
   27.2963   43.1736   85.1304 C   0  0  0  0  0  0  0  0  0  0  0  0
   27.7436   42.0135   84.5177 C   0  0  0  0  0  0  0  0  0  0  0  0
   27.2461   40.7771   84.9145 C   0  0  0  0  0  0  0  0  0  0  0  0
   26.2753   40.7605   85.9134 C   0  0  0  0  0  0  0  0  0  0  0  0
   25.8671   39.5576   86.4014 F   0  0  0  0  0  0  0  0  0  0  0  0
   23.4949   41.5834   89.2234 C   0  0  0  0  0  0  0  0  0  0  0  0
   24.6391   41.8756   88.6514 N   0  0  0  0  0  0  0  0  0  0  0  0
   24.5261   41.8096   87.2847 C   0  0  0  0  0  0  0  0  0  0  0  0
   23.2785   41.5524   86.7850 C   0  0  0  0  0  0  0  0  0  0  0  0
   22.1591   41.3297   88.1134 S   0  0  0  0  0  0  0  0  0  0  0  0
   22.8224   41.3817   85.4228 C   0  0  0  0  0  0  0  0  0  0  0  0
   23.4153   42.0359   84.3459 C   0  0  0  0  0  0  0  0  0  0  0  0
   22.9727   41.6664   83.0893 C   0  0  0  0  0  0  0  0  0  0  0  0
   22.0588   40.7204   82.8885 N   0  0  0  0  0  0  0  0  0  0  0  0
   21.5144   40.1822   83.9962 C   0  0  0  0  0  0  0  0  0  0  0  0
   21.7980   40.5276   85.2569 N   0  0  0  0  0  0  0  0  0  0  0  0
   20.6067   39.1990   83.7830 N   0  0  0  0  0  0  0  0  0  0  0  0
   20.5844   38.8596   82.8363 H   0  0  0  0  0  0  0  0  0  0  0  0
   19.5985   38.7657   84.7073 C   0  0  0  0  0  0  0  0  0  0  0  0
   19.4201   37.3234   85.0543 C   0  0  0  0  0  0  0  0  0  0  0  0
   18.3965   38.0317   84.2192 C   0  0  0  0  0  0  0  0  0  0  0  0
   24.4234   42.0039   91.3638 C   0  0  0  0  0  0  0  0  0  0  0  0
   23.3152   41.5527   90.5639 N   0  0  0  0  0  0  0  0  0  0  0  0
   22.4576   40.5956   91.2186 C   0  0  0  0  0  0  0  0  0  0  0  0
   27.7243   39.5621   84.3993 N   0  0  0  0  0  0  0  0  0  0  0  0
   27.4737   38.7364   84.9240 H   0  0  0  0  0  0  0  0  0  0  0  0
   27.7687   39.3240   82.7275 S   0  0  0  0  0  0  0  0  0  0  0  0
   29.1635   39.1160   82.3418 O   0  0  0  0  0  0  0  0  0  0  0  0
   26.9417   40.3415   82.0813 O   0  0  0  0  0  0  0  0  0  0  0  0
   26.8694   37.7558   82.5815 C   0  0  0  0  0  0  0  0  0  0  0  0
   27.4124   36.6676   81.9020 C   0  0  0  0  0  0  0  0  0  0  0  0
   28.7044   36.6561   81.5507 F   0  0  0  0  0  0  0  0  0  0  0  0
   26.6464   35.5591   81.5920 C   0  0  0  0  0  0  0  0  0  0  0  0
   25.3226   35.5045   81.9961 C   0  0  0  0  0  0  0  0  0  0  0  0
   24.7852   36.5514   82.7347 C   0  0  0  0  0  0  0  0  0  0  0  0
   23.1509   36.4636   83.3225 Cl  0  0  0  0  0  0  0  0  0  0  0  0
   25.5493   37.6746   83.0109 C   0  0  0  0  0  0  0  0  0  0  0  0
   24.9910   38.6797   83.7028 F   0  0  0  0  0  0  0  0  0  0  0  0
   25.9632   44.0332   86.5882 H   0  0  0  0  0  0  0  0  0  0  0  0
   27.7270   44.1163   84.8224 H   0  0  0  0  0  0  0  0  0  0  0  0
   28.4723   42.0717   83.7225 H   0  0  0  0  0  0  0  0  0  0  0  0
   24.1649   42.8001   84.4496 H   0  0  0  0  0  0  0  0  0  0  0  0
   23.3772   42.1648   82.2149 H   0  0  0  0  0  0  0  0  0  0  0  0
   19.4422   39.4918   85.4955 H   0  0  0  0  0  0  0  0  0  0  0  0
   19.1539   37.0595   86.0692 H   0  0  0  0  0  0  0  0  0  0  0  0
   20.0708   36.6070   84.5800 H   0  0  0  0  0  0  0  0  0  0  0  0
   17.4373   38.3003   84.6409 H   0  0  0  0  0  0  0  0  0  0  0  0
   18.3556   37.7587   83.1717 H   0  0  0  0  0  0  0  0  0  0  0  0
   24.0602   42.1959   92.3653 H   0  0  0  0  0  0  0  0  0  0  0  0
   24.8531   42.8968   90.9227 H   0  0  0  0  0  0  0  0  0  0  0  0
   25.2099   41.2538   91.4295 H   0  0  0  0  0  0  0  0  0  0  0  0
   21.8400   41.0975   91.9657 H   0  0  0  0  0  0  0  0  0  0  0  0
   23.0393   39.8301   91.7333 H   0  0  0  0  0  0  0  0  0  0  0  0
   21.8206   40.0984   90.4976 H   0  0  0  0  0  0  0  0  0  0  0  0
   27.1227   34.7562   81.0472 H   0  0  0  0  0  0  0  0  0  0  0  0
   24.7057   34.6459   81.7783 H   0  0  0  0  0  0  0  0  0  0  0  0
  1  2  2  0
  2  3  1  0
  2 41  1  0
  3  4  2  0
  3 42  1  0
  4  5  1  0
  4 43  1  0
  5 27  1  0
  5  6  2  0
  6  7  1  0
  6  1  1  0
  8  9  2  0
  9 10  1  0
 10  1  1  0
 10 11  2  0
 11 13  1  0
 11 12  1  0
 12  8  1  0
 13 14  2  0
 14 15  1  0
 14 44  1  0
 15 16  2  0
 15 45  1  0
 16 17  1  0
 17 19  1  0
 17 18  2  0
 18 13  1  0
 19 21  1  0
 19 20  1  0
 21 22  1  0
 21 46  1  0
 22 23  1  0
 22 47  1  0
 22 48  1  0
 23 21  1  0
 23 49  1  0
 23 50  1  0
 24 25  1  0
 24 51  1  0
 24 52  1  0
 24 53  1  0
 25 26  1  0
 25  8  1  0
 26 54  1  0
 26 55  1  0
 26 56  1  0
 27 29  1  0
 27 28  1  0
 29 30  2  0
 29 31  2  0
 29 32  1  0
 32 33  2  0
 33 34  1  0
 33 35  1  0
 35 36  2  0
 35 57  1  0
 36 37  1  0
 36 58  1  0
 37 38  1  0
 37 39  2  0
 39 40  1  0
 39 32  1  0
M  END
>  <minimizedAffinity>  (1) 
-8.60385

>  <mol_id>  (1) 
15824

>  <source_index>  (1) 
0

>  <layer>  (1) 
L1

>  <uniprot>  (1) 
P06239

>  <paff>  (1) 
6

>  <smiles>  (1) 
CN(C)c1nc(-c2cccc(NS(=O)(=O)c3c(F)ccc(Cl)c3F)c2F)c(-c2ccnc(NC3CC3)n2)s1

>  <aimnet_interaction_kcal_mol>  (1) 
-54.27932464217794

$$$$
L1:P06239:16292
     RDKit          3D

 58 62  0  0  0  0  0  0  0  0999 V2000
   29.8499   38.4487   82.6397 N   0  0  0  0  0  0  0  0  0  0  0  0
   28.7097   37.7090   82.7316 N   0  0  0  0  0  0  0  0  0  0  0  0
   27.7303   38.5536   83.0489 C   0  0  0  0  0  0  0  0  0  0  0  0
   28.2384   39.8762   83.1713 C   0  0  0  0  0  0  0  0  0  0  0  0
   27.7893   41.1968   83.4030 C   0  0  0  0  0  0  0  0  0  0  0  0
   26.4789   41.5420   83.5173 N   0  0  0  0  0  0  0  0  0  0  0  0
   28.6818   42.1821   83.5049 N   0  0  0  0  0  0  0  0  0  0  0  0
   29.9730   41.9184   83.2751 C   0  0  0  0  0  0  0  0  0  0  0  0
   30.5166   40.7423   82.9568 N   0  0  0  0  0  0  0  0  0  0  0  0
   29.6161   39.7592   82.9287 C   0  0  0  0  0  0  0  0  0  0  0  0
   26.2852   42.4969   83.2518 H   0  0  0  0  0  0  0  0  0  0  0  0
   25.7966   40.8747   83.2030 H   0  0  0  0  0  0  0  0  0  0  0  0
   34.3238   37.1078   84.0773 C   0  0  0  0  0  0  0  0  0  0  0  0
   35.4113   36.5719   83.8609 O   0  0  0  0  0  0  0  0  0  0  0  0
   33.2825   37.1109   83.1954 N   0  0  0  0  0  0  0  0  0  0  0  0
   33.4557   36.5401   81.8625 C   0  0  0  0  0  0  0  0  0  0  0  0
   32.2304   35.7469   81.4554 C   0  0  0  0  0  0  0  0  0  0  0  0
   30.9559   36.5961   81.4589 C   0  0  0  0  0  0  0  0  0  0  0  0
   31.1258   37.8637   82.2783 C   0  0  2  0  0  0  0  0  0  0  0  0
   31.9710   37.6581   83.5388 C   0  0  0  0  0  0  0  0  0  0  0  0
   33.6284   38.9997   87.6359 C   0  0  0  0  0  0  0  0  0  0  0  0
   33.8871   38.3497   86.3741 C   0  0  0  0  0  0  0  0  0  0  0  0
   34.0703   37.7935   85.3206 C   0  0  0  0  0  0  0  0  0  0  0  0
   26.3661   38.0632   83.2186 C   0  0  0  0  0  0  0  0  0  0  0  0
   25.8702   37.0270   82.4209 C   0  0  0  0  0  0  0  0  0  0  0  0
   24.5536   36.6182   82.5302 C   0  0  0  0  0  0  0  0  0  0  0  0
   23.6873   37.2763   83.4002 C   0  0  0  0  0  0  0  0  0  0  0  0
   24.1755   38.2715   84.2311 C   0  0  0  0  0  0  0  0  0  0  0  0
   25.5143   38.6245   84.1686 C   0  0  0  0  0  0  0  0  0  0  0  0
   22.3871   36.8415   83.4039 O   0  0  0  0  0  0  0  0  0  0  0  0
   21.3859   37.5779   84.0100 C   0  0  0  0  0  0  0  0  0  0  0  0
   20.4390   36.8559   84.7250 C   0  0  0  0  0  0  0  0  0  0  0  0
   19.3381   37.5078   85.2519 C   0  0  0  0  0  0  0  0  0  0  0  0
   19.1886   38.8796   85.1092 C   0  0  0  0  0  0  0  0  0  0  0  0
   20.1672   39.5958   84.4378 C   0  0  0  0  0  0  0  0  0  0  0  0
   21.2511   38.9508   83.8569 C   0  0  0  0  0  0  0  0  0  0  0  0
   30.6410   42.7663   83.3313 H   0  0  0  0  0  0  0  0  0  0  0  0
   34.3489   35.9254   81.8887 H   0  0  0  0  0  0  0  0  0  0  0  0
   33.6413   37.3415   81.1424 H   0  0  0  0  0  0  0  0  0  0  0  0
   32.1234   34.9035   82.1391 H   0  0  0  0  0  0  0  0  0  0  0  0
   32.3760   35.3350   80.4578 H   0  0  0  0  0  0  0  0  0  0  0  0
   30.1269   36.0337   81.8706 H   0  0  0  0  0  0  0  0  0  0  0  0
   30.6592   36.8490   80.4436 H   0  0  0  0  0  0  0  0  0  0  0  0
   31.6416   38.6193   81.6824 H   0  0  0  0  0  0  0  0  0  0  0  0
   31.4540   37.0058   84.2437 H   0  0  0  0  0  0  0  0  0  0  0  0
   32.0844   38.6143   84.0412 H   0  0  0  0  0  0  0  0  0  0  0  0
   32.7060   39.5785   87.5812 H   0  0  0  0  0  0  0  0  0  0  0  0
   34.4438   39.6673   87.9189 H   0  0  0  0  0  0  0  0  0  0  0  0
   33.4932   38.2528   88.4171 H   0  0  0  0  0  0  0  0  0  0  0  0
   26.5349   36.5385   81.7187 H   0  0  0  0  0  0  0  0  0  0  0  0
   24.1725   35.8064   81.9287 H   0  0  0  0  0  0  0  0  0  0  0  0
   23.5367   38.7498   84.9537 H   0  0  0  0  0  0  0  0  0  0  0  0
   25.8990   39.3330   84.8899 H   0  0  0  0  0  0  0  0  0  0  0  0
   20.5570   35.7880   84.8159 H   0  0  0  0  0  0  0  0  0  0  0  0
   18.5771   36.9409   85.7718 H   0  0  0  0  0  0  0  0  0  0  0  0
   18.2939   39.3696   85.4783 H   0  0  0  0  0  0  0  0  0  0  0  0
   20.0938   40.6706   84.3624 H   0  0  0  0  0  0  0  0  0  0  0  0
   21.9701   39.5187   83.2819 H   0  0  0  0  0  0  0  0  0  0  0  0
  1  2  1  0
  2  3  2  0
  3 24  1  0
  3  4  1  0
  4  5  2  0
  5  6  1  0
  5  7  1  0
  6 11  1  0
  6 12  1  0
  7  8  2  0
  8  9  1  0
  8 37  1  0
  9 10  2  0
 10  1  1  0
 10  4  1  0
 13 14  2  0
 13 15  1  0
 15 16  1  0
 16 17  1  0
 16 38  1  0
 16 39  1  0
 17 18  1  0
 17 40  1  0
 17 41  1  0
 18 19  1  0
 18 42  1  0
 18 43  1  0
 19  1  1  0
 19 20  1  0
 19 44  1  6
 20 15  1  0
 20 45  1  0
 20 46  1  0
 21 22  1  0
 21 47  1  0
 21 48  1  0
 21 49  1  0
 22 23  3  0
 23 13  1  0
 24 25  2  0
 25 26  1  0
 25 50  1  0
 26 27  2  0
 26 51  1  0
 27 30  1  0
 27 28  1  0
 28 29  2  0
 28 52  1  0
 29 24  1  0
 29 53  1  0
 30 31  1  0
 31 32  2  0
 32 33  1  0
 32 54  1  0
 33 34  2  0
 33 55  1  0
 34 35  1  0
 34 56  1  0
 35 36  2  0
 35 57  1  0
 36 31  1  0
 36 58  1  0
M  END
>  <minimizedAffinity>  (2) 
-9.57475

>  <mol_id>  (2) 
16292

>  <source_index>  (2) 
1

>  <layer>  (2) 
L1

>  <uniprot>  (2) 
P06239

>  <paff>  (2) 
8.6839999999999993

>  <smiles>  (2) 
CC#CC(=O)N1CCC[C@H](C1)n1nc(-c2ccc(Oc3ccccc3)cc2)c2c(N)ncnc12 |r|

>  <aimnet_interaction_kcal_mol>  (2) 
-55.041282105983001

$$$$
L1:P06239:16940
     RDKit          3D

 79 83  0  0  0  0  0  0  0  0999 V2000
   20.7195   37.6720   84.6510 C   0  0  0  0  0  0  0  0  0  0  0  0
   19.5157   37.1778   84.2060 C   0  0  0  0  0  0  0  0  0  0  0  0
   18.3084   37.8018   84.5718 C   0  0  0  0  0  0  0  0  0  0  0  0
   18.4074   38.9844   85.3275 C   0  0  0  0  0  0  0  0  0  0  0  0
   19.6359   39.5807   85.5814 C   0  0  0  0  0  0  0  0  0  0  0  0
   20.8304   38.9500   85.2227 C   0  0  0  0  0  0  0  0  0  0  0  0
   17.0848   37.2637   84.1573 N   0  0  0  0  0  0  0  0  0  0  0  0
   15.9650   36.9850   85.0450 C   0  0  0  0  0  0  0  0  0  0  0  0
   14.6332   37.1649   84.3490 C   0  0  0  0  0  0  0  0  0  0  0  0
   14.4839   36.1727   83.2049 C   0  0  0  0  0  0  0  0  0  0  0  0
   15.8020   36.0759   82.4206 C   0  0  0  0  0  0  0  0  0  0  0  0
   16.7759   37.1964   82.7424 C   0  0  0  0  0  0  0  0  0  0  0  0
   13.2690   36.4894   82.4548 N   0  0  0  0  0  0  0  0  0  0  0  0
   12.1220   35.7197   82.9005 C   0  0  0  0  0  0  0  0  0  0  0  0
   10.8924   36.0144   82.0361 C   0  0  0  0  0  0  0  0  0  0  0  0
   10.8853   37.3322   81.4309 N   0  0  0  0  0  0  0  0  0  0  0  0
   10.7523   38.4102   82.4013 C   0  0  0  0  0  0  0  0  0  0  0  0
   12.0730   37.4865   80.5881 C   0  0  0  0  0  0  0  0  0  0  0  0
   13.2686   36.6365   81.0231 C   0  0  0  0  0  0  0  0  0  0  0  0
   22.4211   36.8386   83.2624 C   0  0  0  0  0  0  0  0  0  0  0  0
   21.8774   36.9160   84.5776 O   0  0  0  0  0  0  0  0  0  0  0  0
   22.1154   39.4795   85.3605 N   0  0  0  0  0  0  0  0  0  0  0  0
   22.8404   38.8226   85.1251 H   0  0  0  0  0  0  0  0  0  0  0  0
   22.4938   40.7975   85.2739 C   0  0  0  0  0  0  0  0  0  0  0  0
   21.6108   41.7208   85.6226 N   0  0  0  0  0  0  0  0  0  0  0  0
   22.0057   42.9978   85.4707 C   0  0  0  0  0  0  0  0  0  0  0  0
   23.2738   43.3176   85.0473 C   0  0  0  0  0  0  0  0  0  0  0  0
   23.7710   44.9816   84.9308 Cl  0  0  0  0  0  0  0  0  0  0  0  0
   24.1594   42.2530   84.7303 C   0  0  0  0  0  0  0  0  0  0  0  0
   23.7493   40.9883   84.8404 N   0  0  0  0  0  0  0  0  0  0  0  0
   25.4348   42.5503   84.3441 N   0  0  0  0  0  0  0  0  0  0  0  0
   25.7057   43.5396   84.3869 H   0  0  0  0  0  0  0  0  0  0  0  0
   26.4588   41.7261   83.8812 C   0  0  0  0  0  0  0  0  0  0  0  0
   26.2234   40.4795   83.3004 C   0  0  0  0  0  0  0  0  0  0  0  0
   27.2651   39.7745   82.7261 C   0  0  0  0  0  0  0  0  0  0  0  0
   28.5507   40.2874   82.7251 C   0  0  0  0  0  0  0  0  0  0  0  0
   28.8012   41.5166   83.3218 C   0  0  0  0  0  0  0  0  0  0  0  0
   27.7876   42.2116   83.9577 C   0  0  0  0  0  0  0  0  0  0  0  0
   28.1289   43.6890   84.9670 P   0  0  0  0  0  0  0  0  0  0  0  0
   29.8327   44.1799   84.6946 C   0  0  0  0  0  0  0  0  0  0  0  0
   28.0710   43.0464   86.6763 C   0  0  0  0  0  0  0  0  0  0  0  0
   27.0973   44.7685   84.7382 O   0  0  0  0  0  0  0  0  0  0  0  0
   19.5184   36.2800   83.6108 H   0  0  0  0  0  0  0  0  0  0  0  0
   17.4771   39.4685   85.6159 H   0  0  0  0  0  0  0  0  0  0  0  0
   19.6912   40.5782   85.9924 H   0  0  0  0  0  0  0  0  0  0  0  0
   16.0362   37.6198   85.9175 H   0  0  0  0  0  0  0  0  0  0  0  0
   16.0187   35.9493   85.4031 H   0  0  0  0  0  0  0  0  0  0  0  0
   14.5557   38.1809   83.9755 H   0  0  0  0  0  0  0  0  0  0  0  0
   13.8271   37.0403   85.0669 H   0  0  0  0  0  0  0  0  0  0  0  0
   14.3455   35.1858   83.6731 H   0  0  0  0  0  0  0  0  0  0  0  0
   15.6223   36.0519   81.3548 H   0  0  0  0  0  0  0  0  0  0  0  0
   16.2792   35.1285   82.6480 H   0  0  0  0  0  0  0  0  0  0  0  0
   16.3532   38.1368   82.3798 H   0  0  0  0  0  0  0  0  0  0  0  0
   17.7101   37.0689   82.2004 H   0  0  0  0  0  0  0  0  0  0  0  0
   11.9223   35.9489   83.9439 H   0  0  0  0  0  0  0  0  0  0  0  0
   12.3198   34.6334   82.8499 H   0  0  0  0  0  0  0  0  0  0  0  0
    9.9972   35.8785   82.6383 H   0  0  0  0  0  0  0  0  0  0  0  0
   10.8424   35.2866   81.2204 H   0  0  0  0  0  0  0  0  0  0  0  0
    9.8865   38.2294   83.0355 H   0  0  0  0  0  0  0  0  0  0  0  0
   10.5929   39.3485   81.8662 H   0  0  0  0  0  0  0  0  0  0  0  0
   11.6214   38.5375   83.0530 H   0  0  0  0  0  0  0  0  0  0  0  0
   12.3709   38.5342   80.5914 H   0  0  0  0  0  0  0  0  0  0  0  0
   11.8187   37.2294   79.5536 H   0  0  0  0  0  0  0  0  0  0  0  0
   14.1721   37.1333   80.6867 H   0  0  0  0  0  0  0  0  0  0  0  0
   13.2454   35.6667   80.4927 H   0  0  0  0  0  0  0  0  0  0  0  0
   23.3337   36.2478   83.3149 H   0  0  0  0  0  0  0  0  0  0  0  0
   22.6468   37.8400   82.9018 H   0  0  0  0  0  0  0  0  0  0  0  0
   21.7261   36.3553   82.5758 H   0  0  0  0  0  0  0  0  0  0  0  0
   21.2576   43.7662   85.6704 H   0  0  0  0  0  0  0  0  0  0  0  0
   25.2240   40.0805   83.2828 H   0  0  0  0  0  0  0  0  0  0  0  0
   27.0691   38.8052   82.2856 H   0  0  0  0  0  0  0  0  0  0  0  0
   29.3678   39.7297   82.2922 H   0  0  0  0  0  0  0  0  0  0  0  0
   29.8002   41.9299   83.2790 H   0  0  0  0  0  0  0  0  0  0  0  0
   30.5128   43.4220   85.0752 H   0  0  0  0  0  0  0  0  0  0  0  0
   29.9826   45.1091   85.2398 H   0  0  0  0  0  0  0  0  0  0  0  0
   30.0633   44.3572   83.6454 H   0  0  0  0  0  0  0  0  0  0  0  0
   28.7836   42.2356   86.8023 H   0  0  0  0  0  0  0  0  0  0  0  0
   27.0679   42.6728   86.8607 H   0  0  0  0  0  0  0  0  0  0  0  0
   28.2909   43.8425   87.3843 H   0  0  0  0  0  0  0  0  0  0  0  0
  1  2  2  0
  2  3  1  0
  2 43  1  0
  3  7  1  0
  3  4  2  0
  4  5  1  0
  4 44  1  0
  5  6  2  0
  5 45  1  0
  6 22  1  0
  6  1  1  0
  7  8  1  0
  8  9  1  0
  8 46  1  0
  8 47  1  0
  9 10  1  0
  9 48  1  0
  9 49  1  0
 10 13  1  0
 10 11  1  0
 10 50  1  0
 11 12  1  0
 11 51  1  0
 11 52  1  0
 12  7  1  0
 12 53  1  0
 12 54  1  0
 13 14  1  0
 14 15  1  0
 14 55  1  0
 14 56  1  0
 15 16  1  0
 15 57  1  0
 15 58  1  0
 16 17  1  0
 16 18  1  0
 17 59  1  0
 17 60  1  0
 17 61  1  0
 18 19  1  0
 18 62  1  0
 18 63  1  0
 19 13  1  0
 19 64  1  0
 19 65  1  0
 20 21  1  0
 20 66  1  0
 20 67  1  0
 20 68  1  0
 21  1  1  0
 22 24  1  0
 22 23  1  0
 24 25  2  0
 25 26  1  0
 26 27  2  0
 26 69  1  0
 27 28  1  0
 27 29  1  0
 29 31  1  0
 29 30  2  0
 30 24  1  0
 31 33  1  0
 31 32  1  0
 33 34  2  0
 34 35  1  0
 34 70  1  0
 35 36  2  0
 35 71  1  0
 36 37  1  0
 36 72  1  0
 37 38  2  0
 37 73  1  0
 38 39  1  0
 38 33  1  0
 39 40  1  0
 39 41  1  0
 39 42  2  0
 40 74  1  0
 40 75  1  0
 40 76  1  0
 41 77  1  0
 41 78  1  0
 41 79  1  0
M  END
>  <minimizedAffinity>  (3) 
-8.65182

>  <mol_id>  (3) 
16940

>  <source_index>  (3) 
2

>  <layer>  (3) 
L1

>  <uniprot>  (3) 
P06239

>  <paff>  (3) 
6.2907000000000002

>  <smiles>  (3) 
CN1CCN(CC1)C2CCN(CC2)c3ccc(c(c3)OC)Nc4ncc(c(n4)Nc5ccccc5P(=O)(C)C)Cl

>  <aimnet_interaction_kcal_mol>  (3) 
-78.839446817905952

$$$$
L1:P06239:18189
     RDKit          3D

 40 42  0  0  0  0  0  0  0  0999 V2000
   24.6159   36.4074   82.7549 C   0  0  0  0  0  0  0  0  0  0  0  0
   23.5669   37.2426   83.4097 C   0  0  0  0  0  0  0  0  0  0  0  0
   22.3652   36.6777   83.5837 N   0  0  0  0  0  0  0  0  0  0  0  0
   21.4003   37.3893   84.1652 C   0  0  0  0  0  0  0  0  0  0  0  0
   21.6135   38.6955   84.5854 C   0  0  0  0  0  0  0  0  0  0  0  0
   20.8842   39.7447   85.2316 C   0  0  0  0  0  0  0  0  0  0  0  0
   21.7891   40.8057   85.4136 C   0  0  0  0  0  0  0  0  0  0  0  0
   21.6033   41.9923   85.9888 N   0  0  0  0  0  0  0  0  0  0  0  0
   23.0263   40.4576   84.8955 N   0  0  0  0  0  0  0  0  0  0  0  0
   22.9362   39.1695   84.3660 C   0  0  0  0  0  0  0  0  0  0  0  0
   23.8995   38.4929   83.7830 N   0  0  0  0  0  0  0  0  0  0  0  0
   20.6615   42.2542   86.2484 H   0  0  0  0  0  0  0  0  0  0  0  0
   22.2132   42.7544   85.7389 H   0  0  0  0  0  0  0  0  0  0  0  0
   24.0773   41.4246   84.7673 C   0  0  0  0  0  0  0  0  0  0  0  0
   23.7824   42.5536   83.9991 C   0  0  0  0  0  0  0  0  0  0  0  0
   22.7456   42.5055   82.9274 C   0  0  0  0  0  0  0  0  0  0  0  0
   24.5283   43.7122   84.2488 C   0  0  0  0  0  0  0  0  0  0  0  0
   24.1832   44.9333   83.7910 O   0  0  0  0  0  0  0  0  0  0  0  0
   25.6709   43.6396   85.0379 C   0  0  0  0  0  0  0  0  0  0  0  0
   26.0222   42.4381   85.5989 C   0  0  0  0  0  0  0  0  0  0  0  0
   27.1566   42.3826   86.3441 F   0  0  0  0  0  0  0  0  0  0  0  0
   25.2679   41.2768   85.4785 C   0  0  0  0  0  0  0  0  0  0  0  0
   25.7394   40.0062   86.0965 C   0  0  0  0  0  0  0  0  0  0  0  0
   23.3857   44.9048   83.2322 H   0  0  0  0  0  0  0  0  0  0  0  0
   19.5393   39.8788   85.7427 C   0  0  0  0  0  0  0  0  0  0  0  0
   18.5445   39.0872   85.2902 N   0  0  0  0  0  0  0  0  0  0  0  0
   19.2969   40.7397   86.6276 O   0  0  0  0  0  0  0  0  0  0  0  0
   17.5590   39.2933   85.5066 H   0  0  0  0  0  0  0  0  0  0  0  0
   18.7088   38.4479   84.5359 H   0  0  0  0  0  0  0  0  0  0  0  0
   24.1599   35.7976   81.9792 H   0  0  0  0  0  0  0  0  0  0  0  0
   25.0770   35.7252   83.4690 H   0  0  0  0  0  0  0  0  0  0  0  0
   25.3992   37.0307   82.3343 H   0  0  0  0  0  0  0  0  0  0  0  0
   20.4557   36.8762   84.3001 H   0  0  0  0  0  0  0  0  0  0  0  0
   22.3985   41.4905   82.7668 H   0  0  0  0  0  0  0  0  0  0  0  0
   23.1637   42.8643   81.9897 H   0  0  0  0  0  0  0  0  0  0  0  0
   21.8820   43.1217   83.1603 H   0  0  0  0  0  0  0  0  0  0  0  0
   26.2683   44.5234   85.1995 H   0  0  0  0  0  0  0  0  0  0  0  0
   25.6398   40.0415   87.1823 H   0  0  0  0  0  0  0  0  0  0  0  0
   26.7886   39.8284   85.8701 H   0  0  0  0  0  0  0  0  0  0  0  0
   25.1709   39.1617   85.7309 H   0  0  0  0  0  0  0  0  0  0  0  0
  1  2  1  0
  1 30  1  0
  1 31  1  0
  1 32  1  0
  2  3  2  0
  3  4  1  0
  4  5  2  0
  4 33  1  0
  5  6  1  0
  6 25  1  0
  6  7  2  0
  7  8  1  0
  7  9  1  0
  8 12  1  0
  8 13  1  0
  9 14  1  0
  9 10  1  0
 10 11  2  0
 10  5  1  0
 11  2  1  0
 14 15  2  0
 15 16  1  0
 15 17  1  0
 16 34  1  0
 16 35  1  0
 16 36  1  0
 17 18  1  0
 17 19  2  0
 18 24  1  0
 19 20  1  0
 19 37  1  0
 20 21  1  0
 20 22  2  0
 22 23  1  0
 22 14  1  0
 23 38  1  0
 23 39  1  0
 23 40  1  0
 25 26  1  0
 25 27  2  0
 26 28  1  0
 26 29  1  0
M  END
>  <minimizedAffinity>  (4) 
-7.90557

>  <mol_id>  (4) 
18189

>  <source_index>  (4) 
3

>  <layer>  (4) 
L1

>  <uniprot>  (4) 
P06239

>  <paff>  (4) 
7.3010000000000002

>  <smiles>  (4) 
Cc1ncc2c(C(N)=O)c(N)n(-c3c(C)c(O)cc(F)c3C)c2n1

>  <aimnet_interaction_kcal_mol>  (4) 
-70.076802159803222

$$$$
L1:P06239:31540
     RDKit          3D

 46 48  0  0  0  0  0  0  0  0999 V2000
   22.4014   37.5267   84.2389 N   0  0  0  0  0  0  0  0  0  0  0  0
   22.9132   36.6760   83.2634 C   0  0  0  0  0  0  0  0  0  0  0  0
   22.1242   35.7898   82.6657 N   0  0  0  0  0  0  0  0  0  0  0  0
   24.2578   36.9873   83.0304 C   0  0  0  0  0  0  0  0  0  0  0  0
   24.5668   38.1165   83.8565 C   0  0  0  0  0  0  0  0  0  0  0  0
   25.6449   38.9570   84.1365 C   0  0  0  0  0  0  0  0  0  0  0  0
   25.5440   39.9935   84.9608 N   0  0  0  0  0  0  0  0  0  0  0  0
   24.3465   40.2069   85.5488 C   0  0  0  0  0  0  0  0  0  0  0  0
   23.2520   39.4308   85.4249 N   0  0  0  0  0  0  0  0  0  0  0  0
   23.3956   38.4379   84.5799 C   0  0  0  0  0  0  0  0  0  0  0  0
   21.2845   35.5056   83.1412 H   0  0  0  0  0  0  0  0  0  0  0  0
   22.5588   35.1279   82.0387 H   0  0  0  0  0  0  0  0  0  0  0  0
   21.5317   35.3222   85.8969 C   0  0  0  0  0  0  0  0  0  0  0  0
   20.6485   36.4615   85.5616 C   0  0  0  0  0  0  0  0  0  0  0  0
   19.3490   36.4941   86.0529 C   0  0  0  0  0  0  0  0  0  0  0  0
   18.4725   37.4955   85.6891 C   0  0  0  0  0  0  0  0  0  0  0  0
   18.8839   38.5163   84.8409 C   0  0  0  0  0  0  0  0  0  0  0  0
   17.9992   39.4118   84.3466 O   0  0  0  0  0  0  0  0  0  0  0  0
   20.2332   38.5974   84.4475 C   0  0  0  0  0  0  0  0  0  0  0  0
   20.7631   39.8116   83.7786 C   0  0  0  0  0  0  0  0  0  0  0  0
   21.0682   37.5248   84.7564 C   0  0  0  0  0  0  0  0  0  0  0  0
   17.1366   39.4255   84.8428 H   0  0  0  0  0  0  0  0  0  0  0  0
   25.0192   36.2553   82.0345 C   0  0  0  0  0  0  0  0  0  0  0  0
   26.1136   36.8615   81.5150 N   0  0  0  0  0  0  0  0  0  0  0  0
   24.6918   35.1104   81.6649 O   0  0  0  0  0  0  0  0  0  0  0  0
   26.5939   36.4082   80.7470 H   0  0  0  0  0  0  0  0  0  0  0  0
   26.2114   37.8584   81.5807 H   0  0  0  0  0  0  0  0  0  0  0  0
   24.2578   41.2932   86.3555 N   0  0  0  0  0  0  0  0  0  0  0  0
   25.0781   41.8720   86.3791 H   0  0  0  0  0  0  0  0  0  0  0  0
   23.0796   41.6856   87.0943 C   0  0  0  0  0  0  0  0  0  0  0  0
   22.1572   42.6479   86.3509 C   0  0  0  0  0  0  0  0  0  0  0  0
   20.9538   42.7708   87.0838 O   0  0  0  0  0  0  0  0  0  0  0  0
   20.4149   43.4912   86.6534 H   0  0  0  0  0  0  0  0  0  0  0  0
   26.6265   38.7868   83.7086 H   0  0  0  0  0  0  0  0  0  0  0  0
   21.0691   34.3697   85.6525 H   0  0  0  0  0  0  0  0  0  0  0  0
   21.7681   35.2986   86.9552 H   0  0  0  0  0  0  0  0  0  0  0  0
   22.4559   35.3853   85.3425 H   0  0  0  0  0  0  0  0  0  0  0  0
   19.0021   35.6942   86.6909 H   0  0  0  0  0  0  0  0  0  0  0  0
   17.4449   37.4734   86.0279 H   0  0  0  0  0  0  0  0  0  0  0  0
   19.9787   40.3513   83.2714 H   0  0  0  0  0  0  0  0  0  0  0  0
   21.5365   39.5616   83.0576 H   0  0  0  0  0  0  0  0  0  0  0  0
   21.2037   40.4984   84.4981 H   0  0  0  0  0  0  0  0  0  0  0  0
   23.4012   42.1561   88.0242 H   0  0  0  0  0  0  0  0  0  0  0  0
   22.5195   40.7897   87.3482 H   0  0  0  0  0  0  0  0  0  0  0  0
   21.9639   42.2638   85.3455 H   0  0  0  0  0  0  0  0  0  0  0  0
   22.6673   43.6118   86.2329 H   0  0  0  0  0  0  0  0  0  0  0  0
  1  2  1  0
  2  3  1  0
  2  4  2  0
  3 11  1  0
  3 12  1  0
  4 23  1  0
  4  5  1  0
  5  6  2  0
  6  7  1  0
  6 34  1  0
  7  8  2  0
  8 28  1  0
  8  9  1  0
  9 10  2  0
 10  1  1  0
 10  5  1  0
 13 14  1  0
 13 35  1  0
 13 36  1  0
 13 37  1  0
 14 15  2  0
 15 16  1  0
 15 38  1  0
 16 17  2  0
 16 39  1  0
 17 18  1  0
 17 19  1  0
 18 22  1  0
 19 20  1  0
 19 21  2  0
 20 40  1  0
 20 41  1  0
 20 42  1  0
 21  1  1  0
 21 14  1  0
 23 24  1  0
 23 25  2  0
 24 26  1  0
 24 27  1  0
 28 30  1  0
 28 29  1  0
 30 31  1  0
 30 43  1  0
 30 44  1  0
 31 32  1  0
 31 45  1  0
 31 46  1  0
 32 33  1  0
M  END
>  <minimizedAffinity>  (5) 
-8.14524

>  <mol_id>  (5) 
31540

>  <source_index>  (5) 
4

>  <layer>  (5) 
L1

>  <uniprot>  (5) 
P06239

>  <paff>  (5) 
7.3010000000000002

>  <smiles>  (5) 
Cc1ccc(O)c(C)c1-n1c(N)c(C(N)=O)c2cnc(NCCO)nc21

>  <aimnet_interaction_kcal_mol>  (5) 
-75.223941998377356

$$$$
L1:P06239:43152
     RDKit          3D

 58 61  0  0  0  0  0  0  0  0999 V2000
   24.0857   42.1119   86.3214 N   0  0  0  0  0  0  0  0  0  0  0  0
   24.1795   42.9995   86.7896 H   0  0  0  0  0  0  0  0  0  0  0  0
   19.9671   42.7804   88.3134 C   0  0  0  0  0  0  0  0  0  0  0  0
   20.8096   41.9027   87.4473 C   0  0  0  0  0  0  0  0  0  0  0  0
   22.0672   42.2864   87.2916 N   0  0  0  0  0  0  0  0  0  0  0  0
   22.8086   41.6001   86.4034 C   0  0  0  0  0  0  0  0  0  0  0  0
   22.3019   40.5484   85.6647 C   0  0  0  0  0  0  0  0  0  0  0  0
   20.9669   40.1765   85.9380 C   0  0  0  0  0  0  0  0  0  0  0  0
   20.2436   40.8225   86.8823 N   0  0  0  0  0  0  0  0  0  0  0  0
   20.3889   39.1562   85.2545 N   0  0  0  0  0  0  0  0  0  0  0  0
   19.2011   38.4720   85.7413 C   0  0  0  0  0  0  0  0  0  0  0  0
   18.1183   38.4833   84.7045 C   0  0  0  0  0  0  0  0  0  0  0  0
   18.4937   37.7020   83.5492 N   0  0  0  0  0  0  0  0  0  0  0  0
   19.9114   37.8134   83.2373 C   0  0  0  0  0  0  0  0  0  0  0  0
   20.5855   39.0534   83.8133 C   0  0  0  0  0  0  0  0  0  0  0  0
   17.5187   37.8200   82.4731 C   0  0  0  0  0  0  0  0  0  0  0  0
   16.2426   37.0075   82.7112 C   0  0  0  0  0  0  0  0  0  0  0  0
   16.2118   35.7524   82.0108 O   0  0  0  0  0  0  0  0  0  0  0  0
   15.9189   35.9286   81.0975 H   0  0  0  0  0  0  0  0  0  0  0  0
   25.1770   41.7869   85.5751 C   0  0  0  0  0  0  0  0  0  0  0  0
   26.1206   42.6610   85.3852 N   0  0  0  0  0  0  0  0  0  0  0  0
   27.1237   42.1475   84.6078 C   0  0  0  0  0  0  0  0  0  0  0  0
   26.9855   40.8512   84.2384 C   0  0  0  0  0  0  0  0  0  0  0  0
   25.4887   40.2069   84.8760 S   0  0  0  0  0  0  0  0  0  0  0  0
   27.7853   40.0689   83.2558 C   0  0  0  0  0  0  0  0  0  0  0  0
   27.5795   40.1709   82.0602 O   0  0  0  0  0  0  0  0  0  0  0  0
   28.7228   39.2277   83.7818 N   0  0  0  0  0  0  0  0  0  0  0  0
   29.0578   39.3781   84.7259 H   0  0  0  0  0  0  0  0  0  0  0  0
   29.4101   38.3134   82.9618 C   0  0  0  0  0  0  0  0  0  0  0  0
   28.7409   37.3263   82.2355 C   0  0  0  0  0  0  0  0  0  0  0  0
   27.0005   37.1437   82.3529 Cl  0  0  0  0  0  0  0  0  0  0  0  0
   29.4386   36.4715   81.4041 C   0  0  0  0  0  0  0  0  0  0  0  0
   30.8109   36.6201   81.3319 C   0  0  0  0  0  0  0  0  0  0  0  0
   31.4808   37.5390   82.0283 N   0  0  0  0  0  0  0  0  0  0  0  0
   30.8116   38.3754   82.8225 C   0  0  0  0  0  0  0  0  0  0  0  0
   31.6067   39.4026   83.5541 C   0  0  0  0  0  0  0  0  0  0  0  0
   20.4309   43.7562   88.3651 H   0  0  0  0  0  0  0  0  0  0  0  0
   19.9043   42.3897   89.3312 H   0  0  0  0  0  0  0  0  0  0  0  0
   18.9711   42.9111   87.8914 H   0  0  0  0  0  0  0  0  0  0  0  0
   22.8657   40.0370   84.9045 H   0  0  0  0  0  0  0  0  0  0  0  0
   18.8247   38.9768   86.6127 H   0  0  0  0  0  0  0  0  0  0  0  0
   19.4402   37.4429   86.0115 H   0  0  0  0  0  0  0  0  0  0  0  0
   17.8989   39.5287   84.4561 H   0  0  0  0  0  0  0  0  0  0  0  0
   17.2051   38.0968   85.1386 H   0  0  0  0  0  0  0  0  0  0  0  0
   20.0604   37.8416   82.1631 H   0  0  0  0  0  0  0  0  0  0  0  0
   20.4519   36.9381   83.6064 H   0  0  0  0  0  0  0  0  0  0  0  0
   20.1841   39.9485   83.3362 H   0  0  0  0  0  0  0  0  0  0  0  0
   21.6444   39.0169   83.5750 H   0  0  0  0  0  0  0  0  0  0  0  0
   17.9551   37.4859   81.5428 H   0  0  0  0  0  0  0  0  0  0  0  0
   17.2521   38.8705   82.3068 H   0  0  0  0  0  0  0  0  0  0  0  0
   15.3768   37.6124   82.4313 H   0  0  0  0  0  0  0  0  0  0  0  0
   16.1426   36.7663   83.7679 H   0  0  0  0  0  0  0  0  0  0  0  0
   27.9373   42.7908   84.3016 H   0  0  0  0  0  0  0  0  0  0  0  0
   28.9202   35.7326   80.8138 H   0  0  0  0  0  0  0  0  0  0  0  0
   31.3933   35.9861   80.6727 H   0  0  0  0  0  0  0  0  0  0  0  0
   32.6303   39.3701   83.1977 H   0  0  0  0  0  0  0  0  0  0  0  0
   31.6027   39.2202   84.6282 H   0  0  0  0  0  0  0  0  0  0  0  0
   31.2065   40.4041   83.3978 H   0  0  0  0  0  0  0  0  0  0  0  0
  1 20  1  0
  1  2  1  0
  3  4  1  0
  3 37  1  0
  3 38  1  0
  3 39  1  0
  4  5  2  0
  5  6  1  0
  6  1  1  0
  6  7  2  0
  7  8  1  0
  7 40  1  0
  8 10  1  0
  8  9  2  0
  9  4  1  0
 10 11  1  0
 11 12  1  0
 11 41  1  0
 11 42  1  0
 12 13  1  0
 12 43  1  0
 12 44  1  0
 13 16  1  0
 13 14  1  0
 14 15  1  0
 14 45  1  0
 14 46  1  0
 15 10  1  0
 15 47  1  0
 15 48  1  0
 16 17  1  0
 16 49  1  0
 16 50  1  0
 17 18  1  0
 17 51  1  0
 17 52  1  0
 18 19  1  0
 20 21  2  0
 21 22  1  0
 22 23  2  0
 22 53  1  0
 23 25  1  0
 23 24  1  0
 24 20  1  0
 25 26  2  0
 25 27  1  0
 27 29  1  0
 27 28  1  0
 29 30  2  0
 30 31  1  0
 30 32  1  0
 32 33  2  0
 32 54  1  0
 33 34  1  0
 33 55  1  0
 34 35  2  0
 35 36  1  0
 35 29  1  0
 36 56  1  0
 36 57  1  0
 36 58  1  0
M  END
>  <minimizedAffinity>  (6) 
-8.06649

>  <mol_id>  (6) 
43152

>  <source_index>  (6) 
5

>  <layer>  (6) 
L1

>  <uniprot>  (6) 
P06239

>  <paff>  (6) 
8.8239000000000001

>  <smiles>  (6) 
Cc1nc(Nc2ncc(s2)C(=O)Nc2c(C)nccc2Cl)cc(n1)N1CCN(CCO)CC1

>  <aimnet_interaction_kcal_mol>  (6) 
-72.259895706113156

$$$$
L1:P06239:72037
     RDKit          3D

 68 72  0  0  0  0  0  0  0  0999 V2000
   25.8321   38.8839   83.6984 N   0  0  0  0  0  0  0  0  0  0  0  0
   24.6079   39.2085   84.1813 N   0  0  0  0  0  0  0  0  0  0  0  0
   23.7749   38.2324   83.8152 C   0  0  0  0  0  0  0  0  0  0  0  0
   24.4666   37.2680   83.0306 C   0  0  0  0  0  0  0  0  0  0  0  0
   24.1939   36.1342   82.2400 C   0  0  0  0  0  0  0  0  0  0  0  0
   22.9692   35.6025   82.1212 N   0  0  0  0  0  0  0  0  0  0  0  0
   25.1934   35.5660   81.5444 N   0  0  0  0  0  0  0  0  0  0  0  0
   26.4208   36.1072   81.6192 C   0  0  0  0  0  0  0  0  0  0  0  0
   26.8067   37.1653   82.3247 N   0  0  0  0  0  0  0  0  0  0  0  0
   25.7886   37.7352   82.9819 C   0  0  0  0  0  0  0  0  0  0  0  0
   22.1744   36.0383   82.5481 H   0  0  0  0  0  0  0  0  0  0  0  0
   22.7994   34.8028   81.5246 H   0  0  0  0  0  0  0  0  0  0  0  0
   28.1627   43.4988   85.4550 C   0  0  0  0  0  0  0  0  0  0  0  0
   27.9130   43.7580   86.6378 O   0  0  0  0  0  0  0  0  0  0  0  0
   27.6514   42.3888   84.8473 N   0  0  0  0  0  0  0  0  0  0  0  0
   26.6497   41.5838   85.5275 C   0  0  0  0  0  0  0  0  0  0  0  0
   27.0455   40.1206   85.4530 C   0  0  0  0  0  0  0  0  0  0  0  0
   27.0423   39.6280   84.0109 C   0  0  0  0  0  0  0  0  0  0  0  0
   27.2393   40.7823   83.0342 C   0  0  0  0  0  0  0  0  0  0  0  0
   28.1780   41.8335   83.5962 C   0  0  0  0  0  0  0  0  0  0  0  0
   29.1687   45.6656   84.9662 C   0  0  0  0  0  0  0  0  0  0  0  0
   28.9968   44.3956   84.6141 C   0  0  0  0  0  0  0  0  0  0  0  0
   29.9726   46.6492   84.1950 C   0  0  0  0  0  0  0  0  0  0  0  0
   28.4295   48.4613   84.6935 C   0  0  0  0  0  0  0  0  0  0  0  0
   29.2200   47.8007   83.6866 N   0  0  0  0  0  0  0  0  0  0  0  0
   30.1175   48.7193   83.0161 C   0  0  0  0  0  0  0  0  0  0  0  0
   22.3838   38.2124   84.2588 C   0  0  0  0  0  0  0  0  0  0  0  0
   21.6106   39.3706   84.2966 C   0  0  0  0  0  0  0  0  0  0  0  0
   20.2713   39.3253   84.6619 C   0  0  0  0  0  0  0  0  0  0  0  0
   19.6921   38.1180   85.0315 C   0  0  0  0  0  0  0  0  0  0  0  0
   20.4504   36.9547   85.0089 C   0  0  0  0  0  0  0  0  0  0  0  0
   21.7883   37.0146   84.6613 C   0  0  0  0  0  0  0  0  0  0  0  0
   18.3924   38.0856   85.5023 O   0  0  0  0  0  0  0  0  0  0  0  0
   17.4130   37.5907   84.6576 C   0  0  0  0  0  0  0  0  0  0  0  0
   17.5303   37.6017   83.2740 C   0  0  0  0  0  0  0  0  0  0  0  0
   16.4644   37.1584   82.4978 C   0  0  0  0  0  0  0  0  0  0  0  0
   15.3013   36.6995   83.0988 C   0  0  0  0  0  0  0  0  0  0  0  0
   15.2063   36.6801   84.4834 C   0  0  0  0  0  0  0  0  0  0  0  0
   16.2582   37.1214   85.2659 C   0  0  0  0  0  0  0  0  0  0  0  0
   27.1775   35.6359   81.0111 H   0  0  0  0  0  0  0  0  0  0  0  0
   25.6680   41.7183   85.0685 H   0  0  0  0  0  0  0  0  0  0  0  0
   26.5877   41.9396   86.5496 H   0  0  0  0  0  0  0  0  0  0  0  0
   26.3797   39.5102   86.0591 H   0  0  0  0  0  0  0  0  0  0  0  0
   28.0499   40.0108   85.8568 H   0  0  0  0  0  0  0  0  0  0  0  0
   27.8406   38.9022   83.8663 H   0  0  0  0  0  0  0  0  0  0  0  0
   26.2881   41.2556   82.8055 H   0  0  0  0  0  0  0  0  0  0  0  0
   27.6247   40.4007   82.0905 H   0  0  0  0  0  0  0  0  0  0  0  0
   28.2926   42.6335   82.8782 H   0  0  0  0  0  0  0  0  0  0  0  0
   29.1655   41.3935   83.7706 H   0  0  0  0  0  0  0  0  0  0  0  0
   28.7250   45.9945   85.9010 H   0  0  0  0  0  0  0  0  0  0  0  0
   29.4687   44.0182   83.7145 H   0  0  0  0  0  0  0  0  0  0  0  0
   30.7931   46.9891   84.8560 H   0  0  0  0  0  0  0  0  0  0  0  0
   30.4404   46.1513   83.3419 H   0  0  0  0  0  0  0  0  0  0  0  0
   27.9527   49.3445   84.2659 H   0  0  0  0  0  0  0  0  0  0  0  0
   29.0222   48.7926   85.5682 H   0  0  0  0  0  0  0  0  0  0  0  0
   27.6398   47.8070   85.0581 H   0  0  0  0  0  0  0  0  0  0  0  0
   29.5439   49.4855   82.4924 H   0  0  0  0  0  0  0  0  0  0  0  0
   30.7230   48.1712   82.2978 H   0  0  0  0  0  0  0  0  0  0  0  0
   30.8068   49.2267   83.7157 H   0  0  0  0  0  0  0  0  0  0  0  0
   22.0625   40.3208   84.0485 H   0  0  0  0  0  0  0  0  0  0  0  0
   19.6899   40.2382   84.6843 H   0  0  0  0  0  0  0  0  0  0  0  0
   20.0118   36.0057   85.2805 H   0  0  0  0  0  0  0  0  0  0  0  0
   22.3893   36.1194   84.7375 H   0  0  0  0  0  0  0  0  0  0  0  0
   18.4486   37.9418   82.8141 H   0  0  0  0  0  0  0  0  0  0  0  0
   16.5322   37.1646   81.4214 H   0  0  0  0  0  0  0  0  0  0  0  0
   14.4652   36.3810   82.4915 H   0  0  0  0  0  0  0  0  0  0  0  0
   14.2873   36.3634   84.9598 H   0  0  0  0  0  0  0  0  0  0  0  0
   16.1782   37.1725   86.3417 H   0  0  0  0  0  0  0  0  0  0  0  0
  1  2  1  0
  2  3  2  0
  3 27  1  0
  3  4  1  0
  4  5  2  0
  5  6  1  0
  5  7  1  0
  6 11  1  0
  6 12  1  0
  7  8  2  0
  8  9  1  0
  8 40  1  0
  9 10  2  0
 10  1  1  0
 10  4  1  0
 13 14  2  0
 13 15  1  0
 15 16  1  0
 16 17  1  0
 16 41  1  0
 16 42  1  0
 17 18  1  0
 17 43  1  0
 17 44  1  0
 18  1  1  0
 18 19  1  0
 18 45  1  0
 19 20  1  0
 19 46  1  0
 19 47  1  0
 20 15  1  0
 20 48  1  0
 20 49  1  0
 21 22  2  0
 21 50  1  0
 22 13  1  0
 22 51  1  0
 23 21  1  0
 23 52  1  0
 23 53  1  0
 24 25  1  0
 24 54  1  0
 24 55  1  0
 24 56  1  0
 25 26  1  0
 25 23  1  0
 26 57  1  0
 26 58  1  0
 26 59  1  0
 27 28  2  0
 28 29  1  0
 28 60  1  0
 29 30  2  0
 29 61  1  0
 30 33  1  0
 30 31  1  0
 31 32  2  0
 31 62  1  0
 32 27  1  0
 32 63  1  0
 33 34  1  0
 34 35  2  0
 35 36  1  0
 35 64  1  0
 36 37  2  0
 36 65  1  0
 37 38  1  0
 37 66  1  0
 38 39  2  0
 38 67  1  0
 39 34  1  0
 39 68  1  0
M  END
>  <minimizedAffinity>  (7) 
-9.22569

>  <mol_id>  (7) 
72037

>  <source_index>  (7) 
6

>  <layer>  (7) 
L1

>  <uniprot>  (7) 
P06239

>  <paff>  (7) 
8.5850000000000009

>  <smiles>  (7) 
CN(C)C\C=C\C(=O)N1CCC(CC1)n1nc(-c2ccc(Oc3ccccc3)cc2)c2c(N)ncnc12

>  <aimnet_interaction_kcal_mol>  (7) 
-73.086498560482624

$$$$
L1:P06239:72174
     RDKit          3D

 59 62  0  0  0  0  0  0  0  0999 V2000
   26.3642   42.6761   87.3573 N   0  0  0  0  0  0  0  0  0  0  0  0
   26.6755   43.4157   87.9657 H   0  0  0  0  0  0  0  0  0  0  0  0
   23.0182   41.9506   90.5761 C   0  0  0  0  0  0  0  0  0  0  0  0
   23.4619   41.8854   89.1513 C   0  0  0  0  0  0  0  0  0  0  0  0
   24.7036   42.3015   88.8960 N   0  0  0  0  0  0  0  0  0  0  0  0
   25.1057   42.1666   87.6219 C   0  0  0  0  0  0  0  0  0  0  0  0
   24.3161   41.6146   86.6378 C   0  0  0  0  0  0  0  0  0  0  0  0
   22.9936   41.2978   86.9862 C   0  0  0  0  0  0  0  0  0  0  0  0
   22.5784   41.4216   88.2685 N   0  0  0  0  0  0  0  0  0  0  0  0
   22.1003   40.8754   86.0697 N   0  0  0  0  0  0  0  0  0  0  0  0
   22.4963   40.1707   84.8589 C   0  0  0  0  0  0  0  0  0  0  0  0
   21.4275   40.3599   83.8035 C   0  0  0  0  0  0  0  0  0  0  0  0
   20.1396   39.8085   84.2070 N   0  0  0  0  0  0  0  0  0  0  0  0
   19.9208   39.8932   85.6440 C   0  0  0  0  0  0  0  0  0  0  0  0
   20.6660   41.0674   86.2493 C   0  0  0  0  0  0  0  0  0  0  0  0
   19.8681   38.4831   83.6954 C   0  0  0  0  0  0  0  0  0  0  0  0
   18.4543   38.0278   83.9780 C   0  0  0  0  0  0  0  0  0  0  0  0
   17.5082   39.0043   83.6029 O   0  0  0  0  0  0  0  0  0  0  0  0
   16.8916   39.2034   84.3465 H   0  0  0  0  0  0  0  0  0  0  0  0
   27.1136   42.4607   86.2292 C   0  0  0  0  0  0  0  0  0  0  0  0
   27.8089   43.3903   85.6502 N   0  0  0  0  0  0  0  0  0  0  0  0
   28.5115   42.8904   84.5778 C   0  0  0  0  0  0  0  0  0  0  0  0
   28.4102   41.5506   84.3838 C   0  0  0  0  0  0  0  0  0  0  0  0
   27.3098   40.8577   85.5584 S   0  0  0  0  0  0  0  0  0  0  0  0
   29.0301   40.7137   83.3372 C   0  0  0  0  0  0  0  0  0  0  0  0
   29.1973   41.1107   82.1942 O   0  0  0  0  0  0  0  0  0  0  0  0
   29.3619   39.4611   83.7769 N   0  0  0  0  0  0  0  0  0  0  0  0
   29.7052   39.3679   84.7349 H   0  0  0  0  0  0  0  0  0  0  0  0
   29.5753   38.3872   82.8846 C   0  0  0  0  0  0  0  0  0  0  0  0
   28.4773   37.6782   82.3764 C   0  0  0  0  0  0  0  0  0  0  0  0
   27.0863   38.0337   82.7907 C   0  0  0  0  0  0  0  0  0  0  0  0
   28.6955   36.6561   81.4625 C   0  0  0  0  0  0  0  0  0  0  0  0
   29.9712   36.3522   81.0250 C   0  0  0  0  0  0  0  0  0  0  0  0
   31.0648   37.0349   81.5227 C   0  0  0  0  0  0  0  0  0  0  0  0
   30.8578   38.0184   82.4766 C   0  0  0  0  0  0  0  0  0  0  0  0
   32.2444   38.8054   83.1987 Cl  0  0  0  0  0  0  0  0  0  0  0  0
   23.7401   41.4635   91.2289 H   0  0  0  0  0  0  0  0  0  0  0  0
   22.0474   41.4815   90.6926 H   0  0  0  0  0  0  0  0  0  0  0  0
   22.9522   42.9876   90.8995 H   0  0  0  0  0  0  0  0  0  0  0  0
   24.6565   41.5282   85.6236 H   0  0  0  0  0  0  0  0  0  0  0  0
   22.6259   39.1019   85.0597 H   0  0  0  0  0  0  0  0  0  0  0  0
   23.4397   40.5475   84.4782 H   0  0  0  0  0  0  0  0  0  0  0  0
   21.7469   39.8981   82.8740 H   0  0  0  0  0  0  0  0  0  0  0  0
   21.3196   41.4272   83.6158 H   0  0  0  0  0  0  0  0  0  0  0  0
   20.2547   38.9735   86.1562 H   0  0  0  0  0  0  0  0  0  0  0  0
   18.8531   39.9888   85.8347 H   0  0  0  0  0  0  0  0  0  0  0  0
   20.4801   41.1445   87.3141 H   0  0  0  0  0  0  0  0  0  0  0  0
   20.3252   42.0078   85.8086 H   0  0  0  0  0  0  0  0  0  0  0  0
   20.5711   37.7277   84.0834 H   0  0  0  0  0  0  0  0  0  0  0  0
   20.0086   38.5089   82.6199 H   0  0  0  0  0  0  0  0  0  0  0  0
   18.3527   37.7697   85.0392 H   0  0  0  0  0  0  0  0  0  0  0  0
   18.2717   37.1196   83.3977 H   0  0  0  0  0  0  0  0  0  0  0  0
   29.0920   43.5397   83.9362 H   0  0  0  0  0  0  0  0  0  0  0  0
   26.8863   39.0943   82.6420 H   0  0  0  0  0  0  0  0  0  0  0  0
   26.9253   37.8168   83.8463 H   0  0  0  0  0  0  0  0  0  0  0  0
   26.3585   37.4720   82.2117 H   0  0  0  0  0  0  0  0  0  0  0  0
   27.8609   36.1135   81.0439 H   0  0  0  0  0  0  0  0  0  0  0  0
   30.1156   35.6053   80.2639 H   0  0  0  0  0  0  0  0  0  0  0  0
   32.0610   36.8080   81.1735 H   0  0  0  0  0  0  0  0  0  0  0  0
  1 20  1  0
  1  2  1  0
  3  4  1  0
  3 37  1  0
  3 38  1  0
  3 39  1  0
  4  5  2  0
  5  6  1  0
  6  1  1  0
  6  7  2  0
  7  8  1  0
  7 40  1  0
  8 10  1  0
  8  9  2  0
  9  4  1  0
 10 11  1  0
 11 12  1  0
 11 41  1  0
 11 42  1  0
 12 13  1  0
 12 43  1  0
 12 44  1  0
 13 16  1  0
 13 14  1  0
 14 15  1  0
 14 45  1  0
 14 46  1  0
 15 10  1  0
 15 47  1  0
 15 48  1  0
 16 17  1  0
 16 49  1  0
 16 50  1  0
 17 18  1  0
 17 51  1  0
 17 52  1  0
 18 19  1  0
 20 21  2  0
 21 22  1  0
 22 23  2  0
 22 53  1  0
 23 25  1  0
 23 24  1  0
 24 20  1  0
 25 26  2  0
 25 27  1  0
 27 29  1  0
 27 28  1  0
 29 30  2  0
 30 31  1  0
 30 32  1  0
 31 54  1  0
 31 55  1  0
 31 56  1  0
 32 33  2  0
 32 57  1  0
 33 34  1  0
 33 58  1  0
 34 35  2  0
 34 59  1  0
 35 36  1  0
 35 29  1  0
M  END
>  <minimizedAffinity>  (8) 
-8.28620

>  <mol_id>  (8) 
72174

>  <source_index>  (8) 
7

>  <layer>  (8) 
L1

>  <uniprot>  (8) 
P06239

>  <paff>  (8) 
8.8239000000000001

>  <smiles>  (8) 
Cc1cccc(c1NC(=O)c2cnc(s2)Nc3cc(nc(n3)C)N4CCN(CC4)CCO)Cl

>  <aimnet_interaction_kcal_mol>  (8) 
-76.354424054758965

$$$$
L1:P06239:102288
     RDKit          3D

 47 49  0  0  0  0  0  0  0  0999 V2000
   22.8469   37.4205   84.1705 N   0  0  0  0  0  0  0  0  0  0  0  0
   23.2352   36.5536   83.1671 C   0  0  0  0  0  0  0  0  0  0  0  0
   22.3525   35.7135   82.6292 N   0  0  0  0  0  0  0  0  0  0  0  0
   24.5738   36.7969   82.8334 C   0  0  0  0  0  0  0  0  0  0  0  0
   24.9974   37.9232   83.5951 C   0  0  0  0  0  0  0  0  0  0  0  0
   26.1609   38.6761   83.7242 C   0  0  0  0  0  0  0  0  0  0  0  0
   26.1714   39.7916   84.5530 C   0  0  0  0  0  0  0  0  0  0  0  0
   27.3867   40.6651   84.6341 C   0  0  0  0  0  0  0  0  0  0  0  0
   25.0072   40.0812   85.2942 C   0  0  0  0  0  0  0  0  0  0  0  0
   24.9463   41.2479   86.2288 C   0  0  0  0  0  0  0  0  0  0  0  0
   23.8910   39.3353   85.2250 N   0  0  0  0  0  0  0  0  0  0  0  0
   23.9058   38.3224   84.4000 C   0  0  0  0  0  0  0  0  0  0  0  0
   22.6848   35.0019   81.9966 H   0  0  0  0  0  0  0  0  0  0  0  0
   21.5106   35.5115   83.1435 H   0  0  0  0  0  0  0  0  0  0  0  0
   19.3355   38.3782   83.9762 C   0  0  0  0  0  0  0  0  0  0  0  0
   18.7335   37.5621   84.9192 C   0  0  0  0  0  0  0  0  0  0  0  0
   19.5438   36.7234   85.6393 C   0  0  0  0  0  0  0  0  0  0  0  0
   18.9587   35.9456   86.5982 F   0  0  0  0  0  0  0  0  0  0  0  0
   20.9007   36.5894   85.4026 C   0  0  0  0  0  0  0  0  0  0  0  0
   21.6456   35.4480   85.9662 C   0  0  0  0  0  0  0  0  0  0  0  0
   21.4799   37.5385   84.5475 C   0  0  0  0  0  0  0  0  0  0  0  0
   20.7276   38.5473   83.9551 C   0  0  0  0  0  0  0  0  0  0  0  0
   21.3546   39.7961   83.4527 C   0  0  0  0  0  0  0  0  0  0  0  0
   17.3244   38.3917   82.7467 C   0  0  0  0  0  0  0  0  0  0  0  0
   18.5915   38.9949   83.0135 O   0  0  0  0  0  0  0  0  0  0  0  0
   25.2717   35.9952   81.8500 C   0  0  0  0  0  0  0  0  0  0  0  0
   26.3365   36.5664   81.2405 N   0  0  0  0  0  0  0  0  0  0  0  0
   24.9117   34.8299   81.5765 O   0  0  0  0  0  0  0  0  0  0  0  0
   26.8137   36.0816   80.4864 H   0  0  0  0  0  0  0  0  0  0  0  0
   26.4132   37.5670   81.2438 H   0  0  0  0  0  0  0  0  0  0  0  0
   27.0657   38.4001   83.2005 H   0  0  0  0  0  0  0  0  0  0  0  0
   28.2513   40.1560   84.2211 H   0  0  0  0  0  0  0  0  0  0  0  0
   27.6305   40.9299   85.6587 H   0  0  0  0  0  0  0  0  0  0  0  0
   27.2416   41.5917   84.0779 H   0  0  0  0  0  0  0  0  0  0  0  0
   25.3054   42.1569   85.7538 H   0  0  0  0  0  0  0  0  0  0  0  0
   25.5601   41.0800   87.1130 H   0  0  0  0  0  0  0  0  0  0  0  0
   23.9238   41.3965   86.5544 H   0  0  0  0  0  0  0  0  0  0  0  0
   17.6724   37.5715   85.1095 H   0  0  0  0  0  0  0  0  0  0  0  0
   21.1448   34.5054   85.7725 H   0  0  0  0  0  0  0  0  0  0  0  0
   21.7697   35.5363   87.0387 H   0  0  0  0  0  0  0  0  0  0  0  0
   22.6176   35.4095   85.5065 H   0  0  0  0  0  0  0  0  0  0  0  0
   21.8124   40.3425   84.2723 H   0  0  0  0  0  0  0  0  0  0  0  0
   20.6178   40.4481   83.0023 H   0  0  0  0  0  0  0  0  0  0  0  0
   22.1514   39.5910   82.7460 H   0  0  0  0  0  0  0  0  0  0  0  0
   16.9747   38.8086   81.8129 H   0  0  0  0  0  0  0  0  0  0  0  0
   16.6296   38.6242   83.5467 H   0  0  0  0  0  0  0  0  0  0  0  0
   17.4384   37.3151   82.6395 H   0  0  0  0  0  0  0  0  0  0  0  0
  1  2  1  0
  2  3  1  0
  2  4  2  0
  3 13  1  0
  3 14  1  0
  4 26  1  0
  4  5  1  0
  5  6  2  0
  6  7  1  0
  6 31  1  0
  7  8  1  0
  7  9  2  0
  8 32  1  0
  8 33  1  0
  8 34  1  0
  9 10  1  0
  9 11  1  0
 10 35  1  0
 10 36  1  0
 10 37  1  0
 11 12  2  0
 12  1  1  0
 12  5  1  0
 15 16  2  0
 16 17  1  0
 16 38  1  0
 17 18  1  0
 17 19  2  0
 19 20  1  0
 19 21  1  0
 20 39  1  0
 20 40  1  0
 20 41  1  0
 21  1  1  0
 21 22  2  0
 22 23  1  0
 22 15  1  0
 23 42  1  0
 23 43  1  0
 23 44  1  0
 24 25  1  0
 24 45  1  0
 24 46  1  0
 24 47  1  0
 25 15  1  0
 26 27  1  0
 26 28  2  0
 27 29  1  0
 27 30  1  0
M  END
>  <minimizedAffinity>  (9) 
-8.48188

>  <mol_id>  (9) 
102288

>  <source_index>  (9) 
8

>  <layer>  (9) 
L1

>  <uniprot>  (9) 
P06239

>  <paff>  (9) 
7.1249000000000002

>  <smiles>  (9) 
COc1cc(F)c(C)c(-n2c(N)c(C(N)=O)c3cc(C)c(C)nc32)c1C

>  <aimnet_interaction_kcal_mol>  (9) 
-55.095329554850466

$$$$
L1:P06239:104832
     RDKit          3D

 41 43  0  0  0  0  0  0  0  0999 V2000
   22.6304   36.2925   82.9311 C   0  0  0  0  0  0  0  0  0  0  0  0
   22.9074   37.6025   83.6064 C   0  0  0  0  0  0  0  0  0  0  0  0
   21.8390   38.2650   84.2069 C   0  0  0  0  0  0  0  0  0  0  0  0
   22.0275   39.5368   84.7366 C   0  0  0  0  0  0  0  0  0  0  0  0
   21.2226   40.5542   85.3508 C   0  0  0  0  0  0  0  0  0  0  0  0
   22.0571   41.6685   85.5781 C   0  0  0  0  0  0  0  0  0  0  0  0
   21.7847   42.8933   86.0266 N   0  0  0  0  0  0  0  0  0  0  0  0
   23.3556   41.3159   85.2363 N   0  0  0  0  0  0  0  0  0  0  0  0
   23.3487   40.0396   84.6737 C   0  0  0  0  0  0  0  0  0  0  0  0
   24.3939   39.4179   84.1855 N   0  0  0  0  0  0  0  0  0  0  0  0
   24.1792   38.2075   83.6375 C   0  0  0  0  0  0  0  0  0  0  0  0
   25.3932   37.5365   83.0725 C   0  0  0  0  0  0  0  0  0  0  0  0
   22.4173   43.6373   85.7786 H   0  0  0  0  0  0  0  0  0  0  0  0
   20.8184   43.2215   86.1102 H   0  0  0  0  0  0  0  0  0  0  0  0
   24.5230   42.1185   85.3579 C   0  0  0  0  0  0  0  0  0  0  0  0
   25.3509   41.9723   86.4645 C   0  0  0  0  0  0  0  0  0  0  0  0
   25.1837   40.8452   87.4199 C   0  0  0  0  0  0  0  0  0  0  0  0
   26.3895   42.8800   86.6196 C   0  0  0  0  0  0  0  0  0  0  0  0
   26.6509   43.8096   85.6424 C   0  0  0  0  0  0  0  0  0  0  0  0
   27.6393   44.6961   85.8360 F   0  0  0  0  0  0  0  0  0  0  0  0
   25.9517   43.8600   84.4351 C   0  0  0  0  0  0  0  0  0  0  0  0
   26.3513   44.7312   83.4929 O   0  0  0  0  0  0  0  0  0  0  0  0
   24.8444   43.0091   84.3345 C   0  0  0  0  0  0  0  0  0  0  0  0
   23.8242   43.0295   82.9401 Cl  0  0  0  0  0  0  0  0  0  0  0  0
   26.5131   44.2713   82.6272 H   0  0  0  0  0  0  0  0  0  0  0  0
   19.8726   40.4752   85.8578 C   0  0  0  0  0  0  0  0  0  0  0  0
   19.0267   39.5752   85.2849 N   0  0  0  0  0  0  0  0  0  0  0  0
   19.4854   41.1670   86.8251 O   0  0  0  0  0  0  0  0  0  0  0  0
   19.2684   39.1911   84.3919 H   0  0  0  0  0  0  0  0  0  0  0  0
   18.0351   39.5961   85.5056 H   0  0  0  0  0  0  0  0  0  0  0  0
   22.1518   35.5942   83.6121 H   0  0  0  0  0  0  0  0  0  0  0  0
   23.5222   35.8258   82.5273 H   0  0  0  0  0  0  0  0  0  0  0  0
   21.9355   36.4322   82.1041 H   0  0  0  0  0  0  0  0  0  0  0  0
   20.8833   37.7595   84.2579 H   0  0  0  0  0  0  0  0  0  0  0  0
   26.2808   38.0760   83.3836 H   0  0  0  0  0  0  0  0  0  0  0  0
   25.3696   37.5158   81.9836 H   0  0  0  0  0  0  0  0  0  0  0  0
   25.4684   36.5083   83.4169 H   0  0  0  0  0  0  0  0  0  0  0  0
   24.1677   40.4707   87.4123 H   0  0  0  0  0  0  0  0  0  0  0  0
   25.4385   41.1559   88.4322 H   0  0  0  0  0  0  0  0  0  0  0  0
   25.8360   40.0128   87.1454 H   0  0  0  0  0  0  0  0  0  0  0  0
   27.0161   42.8532   87.5001 H   0  0  0  0  0  0  0  0  0  0  0  0
  1  2  1  0
  1 31  1  0
  1 32  1  0
  1 33  1  0
  2  3  2  0
  3  4  1  0
  3 34  1  0
  4  5  1  0
  5 26  1  0
  5  6  2  0
  6  7  1  0
  6  8  1  0
  7 13  1  0
  7 14  1  0
  8 15  1  0
  8  9  1  0
  9 10  1  0
  9  4  2  0
 10 11  2  0
 11 12  1  0
 11  2  1  0
 12 35  1  0
 12 36  1  0
 12 37  1  0
 15 16  2  0
 16 17  1  0
 16 18  1  0
 17 38  1  0
 17 39  1  0
 17 40  1  0
 18 19  2  0
 18 41  1  0
 19 20  1  0
 19 21  1  0
 21 22  1  0
 21 23  2  0
 22 25  1  0
 23 24  1  0
 23 15  1  0
 26 27  1  0
 26 28  2  0
 27 29  1  0
 27 30  1  0
M  END
>  <minimizedAffinity>  (10) 
-8.89375

>  <mol_id>  (10) 
104832

>  <source_index>  (10) 
9

>  <layer>  (10) 
L1

>  <uniprot>  (10) 
P06239

>  <paff>  (10) 
7.3010000000000002

>  <smiles>  (10) 
Cc1cc2c(C(N)=O)c(N)n(-c3c(C)cc(F)c(O)c3Cl)c2nc1C

>  <aimnet_interaction_kcal_mol>  (10) 
-64.851942830031405

$$$$
