L1:P06239:15824
     RDKit          3D

 58 62  0  0  0  0  0  0  0  0999 V2000
   25.6134   41.7784   86.8783 C   0  0  0  0  0  0  0  0  0  0  0  0
   26.3519   42.9700   86.9136 C   0  0  0  0  0  0  0  0  0  0  0  0
   27.5871   43.0614   86.2649 C   0  0  0  0  0  0  0  0  0  0  0  0
   28.0949   41.9659   85.5646 C   0  0  0  0  0  0  0  0  0  0  0  0
   27.3609   40.7819   85.5093 C   0  0  0  0  0  0  0  0  0  0  0  0
   26.1209   40.6977   86.1526 C   0  0  0  0  0  0  0  0  0  0  0  0
   25.4311   39.5486   86.0614 F   0  0  0  0  0  0  0  0  0  0  0  0
   23.0850   41.6072   89.4177 C   0  0  0  0  0  0  0  0  0  0  0  0
   24.3156   41.6174   88.9509 N   0  0  0  0  0  0  0  0  0  0  0  0
   24.3349   41.7140   87.5694 C   0  0  0  0  0  0  0  0  0  0  0  0
   23.0920   41.6844   86.9596 C   0  0  0  0  0  0  0  0  0  0  0  0
   21.8805   41.6459   88.1758 S   0  0  0  0  0  0  0  0  0  0  0  0
   22.6985   41.6428   85.5540 C   0  0  0  0  0  0  0  0  0  0  0  0
   22.9212   42.7104   84.7130 C   0  0  0  0  0  0  0  0  0  0  0  0
   22.4850   42.5418   83.4253 C   0  0  0  0  0  0  0  0  0  0  0  0
   21.8773   41.4256   82.9909 N   0  0  0  0  0  0  0  0  0  0  0  0
   21.7043   40.4331   83.8790 C   0  0  0  0  0  0  0  0  0  0  0  0
   22.1029   40.5013   85.1548 N   0  0  0  0  0  0  0  0  0  0  0  0
   21.0814   39.2522   83.4990 N   0  0  0  0  0  0  0  0  0  0  0  0
   21.6475   38.7135   82.8595 H   0  0  0  0  0  0  0  0  0  0  0  0
   19.8316   38.7958   84.0642 C   0  0  0  0  0  0  0  0  0  0  0  0
   19.7588   37.5065   84.8324 C   0  0  0  0  0  0  0  0  0  0  0  0
   19.1154   37.6093   83.4811 C   0  0  0  0  0  0  0  0  0  0  0  0
   23.2233   42.5953   91.6709 C   0  0  0  0  0  0  0  0  0  0  0  0
   22.7979   41.5562   90.7520 N   0  0  0  0  0  0  0  0  0  0  0  0
   22.3723   40.2831   91.3097 C   0  0  0  0  0  0  0  0  0  0  0  0
   27.8318   39.6616   84.7520 N   0  0  0  0  0  0  0  0  0  0  0  0
   27.5113   38.7472   85.0862 H   0  0  0  0  0  0  0  0  0  0  0  0
   27.6111   39.7212   83.0683 S   0  0  0  0  0  0  0  0  0  0  0  0
   28.9098   39.7460   82.4353 O   0  0  0  0  0  0  0  0  0  0  0  0
   26.6422   40.7664   82.8169 O   0  0  0  0  0  0  0  0  0  0  0  0
   26.8077   38.2040   82.7333 C   0  0  0  0  0  0  0  0  0  0  0  0
   27.5534   37.1532   82.2094 C   0  0  0  0  0  0  0  0  0  0  0  0
   28.8572   37.2942   81.9371 F   0  0  0  0  0  0  0  0  0  0  0  0
   26.9567   35.9230   81.9403 C   0  0  0  0  0  0  0  0  0  0  0  0
   25.5993   35.7412   82.2013 C   0  0  0  0  0  0  0  0  0  0  0  0
   24.8528   36.7955   82.7314 C   0  0  0  0  0  0  0  0  0  0  0  0
   23.1760   36.5573   83.0429 Cl  0  0  0  0  0  0  0  0  0  0  0  0
   25.4573   38.0262   83.0005 C   0  0  0  0  0  0  0  0  0  0  0  0
   24.7130   39.0164   83.5103 F   0  0  0  0  0  0  0  0  0  0  0  0
   25.9803   43.7869   87.4230 H   0  0  0  0  0  0  0  0  0  0  0  0
   28.1249   43.9413   86.3040 H   0  0  0  0  0  0  0  0  0  0  0  0
   29.0090   42.0321   85.0902 H   0  0  0  0  0  0  0  0  0  0  0  0
   23.3841   43.5764   85.0305 H   0  0  0  0  0  0  0  0  0  0  0  0
   22.6309   43.3123   82.7544 H   0  0  0  0  0  0  0  0  0  0  0  0
   19.5719   39.8135   84.2687 H   0  0  0  0  0  0  0  0  0  0  0  0
   19.1509   37.4408   85.7105 H   0  0  0  0  0  0  0  0  0  0  0  0
   20.4768   36.8516   85.2800 H   0  0  0  0  0  0  0  0  0  0  0  0
   18.0488   37.6172   83.3957 H   0  0  0  0  0  0  0  0  0  0  0  0
   19.1847   37.0584   82.5664 H   0  0  0  0  0  0  0  0  0  0  0  0
   22.8927   42.3543   92.6596 H   0  0  0  0  0  0  0  0  0  0  0  0
   22.8001   43.5313   91.3715 H   0  0  0  0  0  0  0  0  0  0  0  0
   24.2909   42.6666   91.6592 H   0  0  0  0  0  0  0  0  0  0  0  0
   22.1846   40.3973   92.3569 H   0  0  0  0  0  0  0  0  0  0  0  0
   23.1417   39.5542   91.1627 H   0  0  0  0  0  0  0  0  0  0  0  0
   21.4772   39.9606   90.8201 H   0  0  0  0  0  0  0  0  0  0  0  0
   27.5173   35.1497   81.5494 H   0  0  0  0  0  0  0  0  0  0  0  0
   25.1493   34.8337   82.0041 H   0  0  0  0  0  0  0  0  0  0  0  0
  1  2  2  0
  2  3  1  0
  2 41  1  0
  3  4  2  0
  3 42  1  0
  4  5  1  0
  4 43  1  0
  5 27  1  0
  5  6  2  0
  6  7  1  0
  6  1  1  0
  8  9  2  0
  9 10  1  0
 10  1  1  0
 10 11  2  0
 11 13  1  0
 11 12  1  0
 12  8  1  0
 13 14  2  0
 14 15  1  0
 14 44  1  0
 15 16  2  0
 15 45  1  0
 16 17  1  0
 17 19  1  0
 17 18  2  0
 18 13  1  0
 19 21  1  0
 19 20  1  0
 21 22  1  0
 21 46  1  0
 22 23  1  0
 22 47  1  0
 22 48  1  0
 23 21  1  0
 23 49  1  0
 23 50  1  0
 24 25  1  0
 24 51  1  0
 24 52  1  0
 24 53  1  0
 25 26  1  0
 25  8  1  0
 26 54  1  0
 26 55  1  0
 26 56  1  0
 27 29  1  0
 27 28  1  0
 29 30  2  0
 29 31  2  0
 29 32  1  0
 32 33  2  0
 33 34  1  0
 33 35  1  0
 35 36  2  0
 35 57  1  0
 36 37  1  0
 36 58  1  0
 37 38  1  0
 37 39  2  0
 39 40  1  0
 39 32  1  0
M  END
>  <minimizedAffinity>  (1) 
-8.60385

>  <mol_id>  (1) 
15824

>  <source_index>  (1) 
0

>  <layer>  (1) 
L1

>  <uniprot>  (1) 
P06239

>  <paff>  (1) 
6

>  <smiles>  (1) 
CN(C)c1nc(-c2cccc(NS(=O)(=O)c3c(F)ccc(Cl)c3F)c2F)c(-c2ccnc(NC3CC3)n2)s1

$$$$
L1:P06239:16292
     RDKit          3D

 58 62  0  0  0  0  0  0  0  0999 V2000
   29.6416   38.2016   82.5569 N   0  0  0  0  0  0  0  0  0  0  0  0
   28.5576   37.3991   82.6004 N   0  0  0  0  0  0  0  0  0  0  0  0
   27.5350   38.2402   82.8408 C   0  0  0  0  0  0  0  0  0  0  0  0
   27.9749   39.5964   82.8926 C   0  0  0  0  0  0  0  0  0  0  0  0
   27.4287   40.8774   83.0466 C   0  0  0  0  0  0  0  0  0  0  0  0
   26.0886   41.1539   83.1672 N   0  0  0  0  0  0  0  0  0  0  0  0
   28.2653   41.9375   83.0582 N   0  0  0  0  0  0  0  0  0  0  0  0
   29.5853   41.7236   82.8987 C   0  0  0  0  0  0  0  0  0  0  0  0
   30.2151   40.5521   82.7173 N   0  0  0  0  0  0  0  0  0  0  0  0
   29.3475   39.5257   82.7242 C   0  0  0  0  0  0  0  0  0  0  0  0
   25.8365   42.1296   83.2337 H   0  0  0  0  0  0  0  0  0  0  0  0
   25.3794   40.4481   83.0550 H   0  0  0  0  0  0  0  0  0  0  0  0
   34.1699   37.1678   84.2629 C   0  0  0  0  0  0  0  0  0  0  0  0
   35.3130   36.7818   84.0464 O   0  0  0  0  0  0  0  0  0  0  0  0
   33.1072   36.9533   83.3939 N   0  0  0  0  0  0  0  0  0  0  0  0
   33.3309   36.1549   82.1929 C   0  0  0  0  0  0  0  0  0  0  0  0
   32.0754   35.3914   81.7877 C   0  0  0  0  0  0  0  0  0  0  0  0
   30.8851   36.3199   81.5307 C   0  0  0  0  0  0  0  0  0  0  0  0
   30.9614   37.6337   82.3278 C   0  0  2  0  0  0  0  0  0  0  0  0
   31.7501   37.4648   83.6319 C   0  0  0  0  0  0  0  0  0  0  0  0
   33.4687   39.2008   87.7696 C   0  0  0  0  0  0  0  0  0  0  0  0
   33.7107   38.4748   86.5238 C   0  0  0  0  0  0  0  0  0  0  0  0
   33.9150   37.8809   85.4986 C   0  0  0  0  0  0  0  0  0  0  0  0
   26.1835   37.7172   83.0102 C   0  0  0  0  0  0  0  0  0  0  0  0
   25.7228   36.6821   82.1857 C   0  0  0  0  0  0  0  0  0  0  0  0
   24.4288   36.1795   82.3409 C   0  0  0  0  0  0  0  0  0  0  0  0
   23.5873   36.7142   83.3160 C   0  0  0  0  0  0  0  0  0  0  0  0
   24.0492   37.7204   84.1679 C   0  0  0  0  0  0  0  0  0  0  0  0
   25.3443   38.2218   84.0134 C   0  0  0  0  0  0  0  0  0  0  0  0
   22.3369   36.1517   83.4377 O   0  0  0  0  0  0  0  0  0  0  0  0
   21.3141   36.9794   83.8408 C   0  0  0  0  0  0  0  0  0  0  0  0
   20.9062   36.8882   85.1715 C   0  0  0  0  0  0  0  0  0  0  0  0
   19.8530   37.6798   85.6303 C   0  0  0  0  0  0  0  0  0  0  0  0
   19.2002   38.5480   84.7542 C   0  0  0  0  0  0  0  0  0  0  0  0
   19.5937   38.6204   83.4172 C   0  0  0  0  0  0  0  0  0  0  0  0
   20.6470   37.8301   82.9555 C   0  0  0  0  0  0  0  0  0  0  0  0
   30.1859   42.5626   82.9183 H   0  0  0  0  0  0  0  0  0  0  0  0
   34.1176   35.4548   82.3824 H   0  0  0  0  0  0  0  0  0  0  0  0
   33.5939   36.8165   81.3941 H   0  0  0  0  0  0  0  0  0  0  0  0
   31.8179   34.7119   82.5731 H   0  0  0  0  0  0  0  0  0  0  0  0
   32.2883   34.8738   80.8757 H   0  0  0  0  0  0  0  0  0  0  0  0
   29.9873   35.8066   81.8053 H   0  0  0  0  0  0  0  0  0  0  0  0
   30.8985   36.5758   80.4918 H   0  0  0  0  0  0  0  0  0  0  0  0
   31.5026   38.3357   81.7284 H   0  0  0  0  0  0  0  0  0  0  0  0
   31.2282   36.7775   84.2644 H   0  0  0  0  0  0  0  0  0  0  0  0
   31.8362   38.4268   84.0923 H   0  0  0  0  0  0  0  0  0  0  0  0
   32.8823   40.0724   87.5663 H   0  0  0  0  0  0  0  0  0  0  0  0
   34.4039   39.4925   88.1999 H   0  0  0  0  0  0  0  0  0  0  0  0
   32.9428   38.5688   88.4543 H   0  0  0  0  0  0  0  0  0  0  0  0
   26.3426   36.2891   81.4602 H   0  0  0  0  0  0  0  0  0  0  0  0
   24.0959   35.4135   81.7348 H   0  0  0  0  0  0  0  0  0  0  0  0
   23.4355   38.0925   84.9095 H   0  0  0  0  0  0  0  0  0  0  0  0
   25.6846   38.9671   84.6408 H   0  0  0  0  0  0  0  0  0  0  0  0
   21.3822   36.2368   85.8150 H   0  0  0  0  0  0  0  0  0  0  0  0
   19.5568   37.6233   86.6173 H   0  0  0  0  0  0  0  0  0  0  0  0
   18.4251   39.1376   85.0956 H   0  0  0  0  0  0  0  0  0  0  0  0
   19.1055   39.2587   82.7697 H   0  0  0  0  0  0  0  0  0  0  0  0
   20.9320   37.8737   81.9646 H   0  0  0  0  0  0  0  0  0  0  0  0
  1  2  1  0
  2  3  2  0
  3 24  1  0
  3  4  1  0
  4  5  2  0
  5  6  1  0
  5  7  1  0
  6 11  1  0
  6 12  1  0
  7  8  2  0
  8  9  1  0
  8 37  1  0
  9 10  2  0
 10  1  1  0
 10  4  1  0
 13 14  2  0
 13 15  1  0
 15 16  1  0
 16 17  1  0
 16 38  1  0
 16 39  1  0
 17 18  1  0
 17 40  1  0
 17 41  1  0
 18 19  1  0
 18 42  1  0
 18 43  1  0
 19  1  1  0
 19 20  1  0
 19 44  1  6
 20 15  1  0
 20 45  1  0
 20 46  1  0
 21 22  1  0
 21 47  1  0
 21 48  1  0
 21 49  1  0
 22 23  3  0
 23 13  1  0
 24 25  2  0
 25 26  1  0
 25 50  1  0
 26 27  2  0
 26 51  1  0
 27 30  1  0
 27 28  1  0
 28 29  2  0
 28 52  1  0
 29 24  1  0
 29 53  1  0
 30 31  1  0
 31 32  2  0
 32 33  1  0
 32 54  1  0
 33 34  2  0
 33 55  1  0
 34 35  1  0
 34 56  1  0
 35 36  2  0
 35 57  1  0
 36 31  1  0
 36 58  1  0
M  END
>  <minimizedAffinity>  (2) 
-9.57475

>  <mol_id>  (2) 
16292

>  <source_index>  (2) 
1

>  <layer>  (2) 
L1

>  <uniprot>  (2) 
P06239

>  <paff>  (2) 
8.6839999999999993

>  <smiles>  (2) 
CC#CC(=O)N1CCC[C@H](C1)n1nc(-c2ccc(Oc3ccccc3)cc2)c2c(N)ncnc12 |r|

$$$$
L1:P06239:16940
     RDKit          3D

 79 83  0  0  0  0  0  0  0  0999 V2000
   20.9048   37.6845   84.8680 C   0  0  0  0  0  0  0  0  0  0  0  0
   19.6629   37.1487   84.4886 C   0  0  0  0  0  0  0  0  0  0  0  0
   18.4729   37.8898   84.5784 C   0  0  0  0  0  0  0  0  0  0  0  0
   18.5882   39.1979   85.0670 C   0  0  0  0  0  0  0  0  0  0  0  0
   19.8206   39.7460   85.4503 C   0  0  0  0  0  0  0  0  0  0  0  0
   20.9960   39.0046   85.3580 C   0  0  0  0  0  0  0  0  0  0  0  0
   17.2462   37.3569   84.2022 N   0  0  0  0  0  0  0  0  0  0  0  0
   16.4008   36.6695   85.1818 C   0  0  0  0  0  0  0  0  0  0  0  0
   14.9304   36.7844   84.7879 C   0  0  0  0  0  0  0  0  0  0  0  0
   14.6716   36.1297   83.4193 C   0  0  0  0  0  0  0  0  0  0  0  0
   15.8735   36.2826   82.4668 C   0  0  0  0  0  0  0  0  0  0  0  0
   16.7664   37.4668   82.8216 C   0  0  0  0  0  0  0  0  0  0  0  0
   13.3887   36.4960   82.7877 N   0  0  0  0  0  0  0  0  0  0  0  0
   12.2170   35.7068   83.2097 C   0  0  0  0  0  0  0  0  0  0  0  0
   11.0178   35.7571   82.2221 C   0  0  0  0  0  0  0  0  0  0  0  0
   10.9043   36.9906   81.4247 N   0  0  0  0  0  0  0  0  0  0  0  0
   10.5489   38.1287   82.2744 C   0  0  0  0  0  0  0  0  0  0  0  0
   12.1782   37.2423   80.7141 C   0  0  0  0  0  0  0  0  0  0  0  0
   13.4517   36.5941   81.3239 C   0  0  0  0  0  0  0  0  0  0  0  0
   22.6823   36.8350   83.5130 C   0  0  0  0  0  0  0  0  0  0  0  0
   22.1055   37.0094   84.8001 O   0  0  0  0  0  0  0  0  0  0  0  0
   22.2570   39.4963   85.7253 N   0  0  0  0  0  0  0  0  0  0  0  0
   22.7564   38.9048   86.3779 H   0  0  0  0  0  0  0  0  0  0  0  0
   23.0085   40.6145   85.3986 C   0  0  0  0  0  0  0  0  0  0  0  0
   22.7402   41.8229   85.9111 N   0  0  0  0  0  0  0  0  0  0  0  0
   23.5343   42.8407   85.5268 C   0  0  0  0  0  0  0  0  0  0  0  0
   24.5830   42.7028   84.6502 C   0  0  0  0  0  0  0  0  0  0  0  0
   25.5447   44.0644   84.2326 Cl  0  0  0  0  0  0  0  0  0  0  0  0
   24.7990   41.4249   84.1538 C   0  0  0  0  0  0  0  0  0  0  0  0
   24.0166   40.3911   84.5387 N   0  0  0  0  0  0  0  0  0  0  0  0
   25.8685   41.1969   83.2598 N   0  0  0  0  0  0  0  0  0  0  0  0
   25.8939   41.8913   82.5025 H   0  0  0  0  0  0  0  0  0  0  0  0
   26.7250   40.0926   83.0866 C   0  0  0  0  0  0  0  0  0  0  0  0
   26.2565   38.8649   82.5940 C   0  0  0  0  0  0  0  0  0  0  0  0
   27.1086   37.7714   82.4226 C   0  0  0  0  0  0  0  0  0  0  0  0
   28.4541   37.8836   82.7434 C   0  0  0  0  0  0  0  0  0  0  0  0
   28.9439   39.0889   83.2387 C   0  0  0  0  0  0  0  0  0  0  0  0
   28.0941   40.1975   83.4179 C   0  0  0  0  0  0  0  0  0  0  0  0
   28.7762   41.7100   84.0445 P   0  0  0  0  0  0  0  0  0  0  0  0
   30.5607   41.5412   84.1720 C   0  0  0  0  0  0  0  0  0  0  0  0
   28.2621   41.9331   85.7522 C   0  0  0  0  0  0  0  0  0  0  0  0
   28.4367   42.9497   83.2483 O   0  0  0  0  0  0  0  0  0  0  0  0
   19.6235   36.1807   84.1329 H   0  0  0  0  0  0  0  0  0  0  0  0
   17.7379   39.7772   85.1474 H   0  0  0  0  0  0  0  0  0  0  0  0
   19.8573   40.7139   85.8064 H   0  0  0  0  0  0  0  0  0  0  0  0
   16.5438   37.1138   86.1446 H   0  0  0  0  0  0  0  0  0  0  0  0
   16.6730   35.6351   85.2107 H   0  0  0  0  0  0  0  0  0  0  0  0
   14.6619   37.8189   84.7370 H   0  0  0  0  0  0  0  0  0  0  0  0
   14.3405   36.2790   85.5238 H   0  0  0  0  0  0  0  0  0  0  0  0
   14.5650   35.0862   83.6308 H   0  0  0  0  0  0  0  0  0  0  0  0
   15.5050   36.4193   81.4716 H   0  0  0  0  0  0  0  0  0  0  0  0
   16.4666   35.3963   82.5542 H   0  0  0  0  0  0  0  0  0  0  0  0
   16.2074   38.3729   82.7149 H   0  0  0  0  0  0  0  0  0  0  0  0
   17.6098   37.4719   82.1631 H   0  0  0  0  0  0  0  0  0  0  0  0
   11.8862   36.0794   84.1566 H   0  0  0  0  0  0  0  0  0  0  0  0
   12.5356   34.6862   83.2505 H   0  0  0  0  0  0  0  0  0  0  0  0
   10.1178   35.6480   82.7905 H   0  0  0  0  0  0  0  0  0  0  0  0
   11.1825   34.9671   81.5194 H   0  0  0  0  0  0  0  0  0  0  0  0
    9.6266   37.9243   82.7769 H   0  0  0  0  0  0  0  0  0  0  0  0
   10.4392   39.0047   81.6698 H   0  0  0  0  0  0  0  0  0  0  0  0
   11.3212   38.2889   82.9975 H   0  0  0  0  0  0  0  0  0  0  0  0
   12.3326   38.3008   80.6885 H   0  0  0  0  0  0  0  0  0  0  0  0
   12.0611   36.7870   79.7529 H   0  0  0  0  0  0  0  0  0  0  0  0
   14.3005   37.1881   81.0563 H   0  0  0  0  0  0  0  0  0  0  0  0
   13.5278   35.6002   80.9351 H   0  0  0  0  0  0  0  0  0  0  0  0
   23.6041   36.2995   83.6048 H   0  0  0  0  0  0  0  0  0  0  0  0
   22.8683   37.7924   83.0728 H   0  0  0  0  0  0  0  0  0  0  0  0
   22.0088   36.2818   82.8923 H   0  0  0  0  0  0  0  0  0  0  0  0
   23.3439   43.7785   85.9133 H   0  0  0  0  0  0  0  0  0  0  0  0
   25.2579   38.7676   82.3524 H   0  0  0  0  0  0  0  0  0  0  0  0
   26.7376   36.8803   82.0575 H   0  0  0  0  0  0  0  0  0  0  0  0
   29.0874   37.0788   82.6156 H   0  0  0  0  0  0  0  0  0  0  0  0
   29.9444   39.1712   83.4781 H   0  0  0  0  0  0  0  0  0  0  0  0
   30.7965   40.6630   84.7360 H   0  0  0  0  0  0  0  0  0  0  0  0
   30.9660   42.4006   84.6640 H   0  0  0  0  0  0  0  0  0  0  0  0
   30.9822   41.4595   83.1919 H   0  0  0  0  0  0  0  0  0  0  0  0
   28.5028   41.0553   86.3147 H   0  0  0  0  0  0  0  0  0  0  0  0
   27.2060   42.1010   85.7877 H   0  0  0  0  0  0  0  0  0  0  0  0
   28.7715   42.7758   86.1708 H   0  0  0  0  0  0  0  0  0  0  0  0
  1  2  2  0
  2  3  1  0
  2 43  1  0
  3  7  1  0
  3  4  2  0
  4  5  1  0
  4 44  1  0
  5  6  2  0
  5 45  1  0
  6 22  1  0
  6  1  1  0
  7  8  1  0
  8  9  1  0
  8 46  1  0
  8 47  1  0
  9 10  1  0
  9 48  1  0
  9 49  1  0
 10 13  1  0
 10 11  1  0
 10 50  1  0
 11 12  1  0
 11 51  1  0
 11 52  1  0
 12  7  1  0
 12 53  1  0
 12 54  1  0
 13 14  1  0
 14 15  1  0
 14 55  1  0
 14 56  1  0
 15 16  1  0
 15 57  1  0
 15 58  1  0
 16 17  1  0
 16 18  1  0
 17 59  1  0
 17 60  1  0
 17 61  1  0
 18 19  1  0
 18 62  1  0
 18 63  1  0
 19 13  1  0
 19 64  1  0
 19 65  1  0
 20 21  1  0
 20 66  1  0
 20 67  1  0
 20 68  1  0
 21  1  1  0
 22 24  1  0
 22 23  1  0
 24 25  2  0
 25 26  1  0
 26 27  2  0
 26 69  1  0
 27 28  1  0
 27 29  1  0
 29 31  1  0
 29 30  2  0
 30 24  1  0
 31 33  1  0
 31 32  1  0
 33 34  2  0
 34 35  1  0
 34 70  1  0
 35 36  2  0
 35 71  1  0
 36 37  1  0
 36 72  1  0
 37 38  2  0
 37 73  1  0
 38 39  1  0
 38 33  1  0
 39 40  1  0
 39 41  1  0
 39 42  2  0
 40 74  1  0
 40 75  1  0
 40 76  1  0
 41 77  1  0
 41 78  1  0
 41 79  1  0
M  END
>  <minimizedAffinity>  (3) 
-8.65182

>  <mol_id>  (3) 
16940

>  <source_index>  (3) 
2

>  <layer>  (3) 
L1

>  <uniprot>  (3) 
P06239

>  <paff>  (3) 
6.2907000000000002

>  <smiles>  (3) 
CN1CCN(CC1)C2CCN(CC2)c3ccc(c(c3)OC)Nc4ncc(c(n4)Nc5ccccc5P(=O)(C)C)Cl

$$$$
L1:P06239:18189
     RDKit          3D

 40 42  0  0  0  0  0  0  0  0999 V2000
   27.1599   37.8017   81.7786 C   0  0  0  0  0  0  0  0  0  0  0  0
   25.8877   37.7927   82.5696 C   0  0  0  0  0  0  0  0  0  0  0  0
   25.1342   36.6746   82.5048 N   0  0  0  0  0  0  0  0  0  0  0  0
   23.9687   36.6388   83.1857 C   0  0  0  0  0  0  0  0  0  0  0  0
   23.5682   37.7359   83.9457 C   0  0  0  0  0  0  0  0  0  0  0  0
   22.4607   38.0628   84.7895 C   0  0  0  0  0  0  0  0  0  0  0  0
   22.6298   39.3887   85.1701 C   0  0  0  0  0  0  0  0  0  0  0  0
   21.7974   40.1781   85.8881 N   0  0  0  0  0  0  0  0  0  0  0  0
   23.8388   39.8485   84.6576 N   0  0  0  0  0  0  0  0  0  0  0  0
   24.4066   38.8411   83.8972 C   0  0  0  0  0  0  0  0  0  0  0  0
   25.5807   38.9151   83.2385 N   0  0  0  0  0  0  0  0  0  0  0  0
   20.8804   39.8346   86.1830 H   0  0  0  0  0  0  0  0  0  0  0  0
   21.9625   41.1649   86.0705 H   0  0  0  0  0  0  0  0  0  0  0  0
   24.4112   41.1325   84.8756 C   0  0  0  0  0  0  0  0  0  0  0  0
   23.9725   42.2350   84.1004 C   0  0  0  0  0  0  0  0  0  0  0  0
   22.8967   42.1214   83.0497 C   0  0  0  0  0  0  0  0  0  0  0  0
   24.5804   43.4800   84.3231 C   0  0  0  0  0  0  0  0  0  0  0  0
   24.1936   44.5505   83.5638 O   0  0  0  0  0  0  0  0  0  0  0  0
   25.5530   43.6490   85.3023 C   0  0  0  0  0  0  0  0  0  0  0  0
   25.9504   42.5558   86.0618 C   0  0  0  0  0  0  0  0  0  0  0  0
   26.8887   42.7453   87.0019 F   0  0  0  0  0  0  0  0  0  0  0  0
   25.4159   41.2796   85.8598 C   0  0  0  0  0  0  0  0  0  0  0  0
   25.9447   40.1444   86.6927 C   0  0  0  0  0  0  0  0  0  0  0  0
   24.7271   45.3252   83.8057 H   0  0  0  0  0  0  0  0  0  0  0  0
   21.3258   37.2393   85.1795 C   0  0  0  0  0  0  0  0  0  0  0  0
   20.5613   36.7510   84.1590 N   0  0  0  0  0  0  0  0  0  0  0  0
   21.0650   36.9368   86.3401 O   0  0  0  0  0  0  0  0  0  0  0  0
   19.7824   36.1587   84.4135 H   0  0  0  0  0  0  0  0  0  0  0  0
   20.8098   36.8343   83.1859 H   0  0  0  0  0  0  0  0  0  0  0  0
   27.2870   36.8548   81.2967 H   0  0  0  0  0  0  0  0  0  0  0  0
   27.9862   37.9821   82.4341 H   0  0  0  0  0  0  0  0  0  0  0  0
   27.1152   38.5746   81.0400 H   0  0  0  0  0  0  0  0  0  0  0  0
   23.3732   35.7970   83.1431 H   0  0  0  0  0  0  0  0  0  0  0  0
   22.5427   41.1124   83.0093 H   0  0  0  0  0  0  0  0  0  0  0  0
   23.2982   42.3970   82.0969 H   0  0  0  0  0  0  0  0  0  0  0  0
   22.0859   42.7742   83.2974 H   0  0  0  0  0  0  0  0  0  0  0  0
   25.9752   44.5768   85.4632 H   0  0  0  0  0  0  0  0  0  0  0  0
   26.6952   40.5118   87.3610 H   0  0  0  0  0  0  0  0  0  0  0  0
   26.3706   39.4004   86.0524 H   0  0  0  0  0  0  0  0  0  0  0  0
   25.1445   39.7133   87.2573 H   0  0  0  0  0  0  0  0  0  0  0  0
  1  2  1  0
  1 30  1  0
  1 31  1  0
  1 32  1  0
  2  3  2  0
  3  4  1  0
  4  5  2  0
  4 33  1  0
  5  6  1  0
  6 25  1  0
  6  7  2  0
  7  8  1  0
  7  9  1  0
  8 12  1  0
  8 13  1  0
  9 14  1  0
  9 10  1  0
 10 11  2  0
 10  5  1  0
 11  2  1  0
 14 15  2  0
 15 16  1  0
 15 17  1  0
 16 34  1  0
 16 35  1  0
 16 36  1  0
 17 18  1  0
 17 19  2  0
 18 24  1  0
 19 20  1  0
 19 37  1  0
 20 21  1  0
 20 22  2  0
 22 23  1  0
 22 14  1  0
 23 38  1  0
 23 39  1  0
 23 40  1  0
 25 26  1  0
 25 27  2  0
 26 28  1  0
 26 29  1  0
M  END
>  <minimizedAffinity>  (4) 
-7.90557

>  <mol_id>  (4) 
18189

>  <source_index>  (4) 
3

>  <layer>  (4) 
L1

>  <uniprot>  (4) 
P06239

>  <paff>  (4) 
7.3010000000000002

>  <smiles>  (4) 
Cc1ncc2c(C(N)=O)c(N)n(-c3c(C)c(O)cc(F)c3C)c2n1

$$$$
L1:P06239:31540
     RDKit          3D

 46 48  0  0  0  0  0  0  0  0999 V2000
   22.4156   37.3879   83.9395 N   0  0  0  0  0  0  0  0  0  0  0  0
   22.9632   36.4957   83.0216 C   0  0  0  0  0  0  0  0  0  0  0  0
   22.2293   35.5288   82.4234 N   0  0  0  0  0  0  0  0  0  0  0  0
   24.3016   36.8179   82.8307 C   0  0  0  0  0  0  0  0  0  0  0  0
   24.5822   37.9210   83.6953 C   0  0  0  0  0  0  0  0  0  0  0  0
   25.6989   38.6731   84.0460 C   0  0  0  0  0  0  0  0  0  0  0  0
   25.5812   39.6882   84.9292 N   0  0  0  0  0  0  0  0  0  0  0  0
   24.3854   39.9396   85.4867 C   0  0  0  0  0  0  0  0  0  0  0  0
   23.2618   39.2660   85.2346 N   0  0  0  0  0  0  0  0  0  0  0  0
   23.4045   38.2700   84.3387 C   0  0  0  0  0  0  0  0  0  0  0  0
   21.2400   35.3732   82.6042 H   0  0  0  0  0  0  0  0  0  0  0  0
   22.6672   34.8470   81.8009 H   0  0  0  0  0  0  0  0  0  0  0  0
   21.7138   35.7515   86.2766 C   0  0  0  0  0  0  0  0  0  0  0  0
   20.7285   36.6148   85.5344 C   0  0  0  0  0  0  0  0  0  0  0  0
   19.4023   36.6436   85.9900 C   0  0  0  0  0  0  0  0  0  0  0  0
   18.4506   37.4521   85.3713 C   0  0  0  0  0  0  0  0  0  0  0  0
   18.8089   38.2240   84.2687 C   0  0  0  0  0  0  0  0  0  0  0  0
   17.8730   39.0246   83.6727 O   0  0  0  0  0  0  0  0  0  0  0  0
   20.1088   38.1978   83.7454 C   0  0  0  0  0  0  0  0  0  0  0  0
   20.4206   39.0113   82.5147 C   0  0  0  0  0  0  0  0  0  0  0  0
   21.0716   37.3962   84.4058 C   0  0  0  0  0  0  0  0  0  0  0  0
   17.0210   38.9009   84.1214 H   0  0  0  0  0  0  0  0  0  0  0  0
   25.1885   36.1137   81.9165 C   0  0  0  0  0  0  0  0  0  0  0  0
   26.0491   36.8919   81.1964 N   0  0  0  0  0  0  0  0  0  0  0  0
   25.1648   34.8999   81.7363 O   0  0  0  0  0  0  0  0  0  0  0  0
   26.6555   36.4163   80.5419 H   0  0  0  0  0  0  0  0  0  0  0  0
   26.0127   37.8987   81.1813 H   0  0  0  0  0  0  0  0  0  0  0  0
   24.2617   40.9604   86.3910 N   0  0  0  0  0  0  0  0  0  0  0  0
   24.8441   40.8534   87.2089 H   0  0  0  0  0  0  0  0  0  0  0  0
   23.1342   41.8660   86.3525 C   0  0  0  0  0  0  0  0  0  0  0  0
   23.3760   42.9318   85.2791 C   0  0  0  0  0  0  0  0  0  0  0  0
   22.2202   43.7549   85.1188 O   0  0  0  0  0  0  0  0  0  0  0  0
   21.4498   43.1880   85.3169 H   0  0  0  0  0  0  0  0  0  0  0  0
   26.6182   38.4551   83.6308 H   0  0  0  0  0  0  0  0  0  0  0  0
   21.2180   35.2614   87.0883 H   0  0  0  0  0  0  0  0  0  0  0  0
   22.5056   36.3615   86.6585 H   0  0  0  0  0  0  0  0  0  0  0  0
   22.1180   35.0181   85.6105 H   0  0  0  0  0  0  0  0  0  0  0  0
   19.1275   36.0582   86.7942 H   0  0  0  0  0  0  0  0  0  0  0  0
   17.4830   37.4788   85.7291 H   0  0  0  0  0  0  0  0  0  0  0  0
   19.5404   39.5308   82.1981 H   0  0  0  0  0  0  0  0  0  0  0  0
   20.7520   38.3613   81.7320 H   0  0  0  0  0  0  0  0  0  0  0  0
   21.1906   39.7190   82.7406 H   0  0  0  0  0  0  0  0  0  0  0  0
   23.0226   42.3383   87.3061 H   0  0  0  0  0  0  0  0  0  0  0  0
   22.2439   41.3197   86.1204 H   0  0  0  0  0  0  0  0  0  0  0  0
   23.5968   42.4506   84.3492 H   0  0  0  0  0  0  0  0  0  0  0  0
   24.1978   43.5464   85.5821 H   0  0  0  0  0  0  0  0  0  0  0  0
  1  2  1  0
  2  3  1  0
  2  4  2  0
  3 11  1  0
  3 12  1  0
  4 23  1  0
  4  5  1  0
  5  6  2  0
  6  7  1  0
  6 34  1  0
  7  8  2  0
  8 28  1  0
  8  9  1  0
  9 10  2  0
 10  1  1  0
 10  5  1  0
 13 14  1  0
 13 35  1  0
 13 36  1  0
 13 37  1  0
 14 15  2  0
 15 16  1  0
 15 38  1  0
 16 17  2  0
 16 39  1  0
 17 18  1  0
 17 19  1  0
 18 22  1  0
 19 20  1  0
 19 21  2  0
 20 40  1  0
 20 41  1  0
 20 42  1  0
 21  1  1  0
 21 14  1  0
 23 24  1  0
 23 25  2  0
 24 26  1  0
 24 27  1  0
 28 30  1  0
 28 29  1  0
 30 31  1  0
 30 43  1  0
 30 44  1  0
 31 32  1  0
 31 45  1  0
 31 46  1  0
 32 33  1  0
M  END
>  <minimizedAffinity>  (5) 
-8.14524

>  <mol_id>  (5) 
31540

>  <source_index>  (5) 
4

>  <layer>  (5) 
L1

>  <uniprot>  (5) 
P06239

>  <paff>  (5) 
7.3010000000000002

>  <smiles>  (5) 
Cc1ccc(O)c(C)c1-n1c(N)c(C(N)=O)c2cnc(NCCO)nc21

$$$$
L1:P06239:43152
     RDKit          3D

 58 61  0  0  0  0  0  0  0  0999 V2000
   24.6418   41.2966   87.1519 N   0  0  0  0  0  0  0  0  0  0  0  0
   25.0419   41.3621   88.0754 H   0  0  0  0  0  0  0  0  0  0  0  0
   20.4399   43.0985   88.6540 C   0  0  0  0  0  0  0  0  0  0  0  0
   21.2151   42.1625   87.7822 C   0  0  0  0  0  0  0  0  0  0  0  0
   22.5484   42.1745   87.8939 N   0  0  0  0  0  0  0  0  0  0  0  0
   23.2357   41.3235   87.1243 C   0  0  0  0  0  0  0  0  0  0  0  0
   22.5838   40.4606   86.2562 C   0  0  0  0  0  0  0  0  0  0  0  0
   21.2014   40.4812   86.2050 C   0  0  0  0  0  0  0  0  0  0  0  0
   20.5202   41.3418   86.9778 N   0  0  0  0  0  0  0  0  0  0  0  0
   20.4833   39.6495   85.3700 N   0  0  0  0  0  0  0  0  0  0  0  0
   19.8266   38.4665   85.9426 C   0  0  0  0  0  0  0  0  0  0  0  0
   18.5978   38.0763   85.0873 C   0  0  0  0  0  0  0  0  0  0  0  0
   18.8936   37.7712   83.6675 N   0  0  0  0  0  0  0  0  0  0  0  0
   20.1285   38.4501   83.2213 C   0  0  0  0  0  0  0  0  0  0  0  0
   20.4476   39.7962   83.9134 C   0  0  0  0  0  0  0  0  0  0  0  0
   17.7555   38.0779   82.7888 C   0  0  0  0  0  0  0  0  0  0  0  0
   16.5264   37.1841   83.0197 C   0  0  0  0  0  0  0  0  0  0  0  0
   15.9220   36.8429   81.7737 O   0  0  0  0  0  0  0  0  0  0  0  0
   15.5558   37.6601   81.3949 H   0  0  0  0  0  0  0  0  0  0  0  0
   25.4662   41.4625   86.0950 C   0  0  0  0  0  0  0  0  0  0  0  0
   25.7155   42.5736   85.4393 N   0  0  0  0  0  0  0  0  0  0  0  0
   26.6096   42.3492   84.4142 C   0  0  0  0  0  0  0  0  0  0  0  0
   27.0185   41.0426   84.2467 C   0  0  0  0  0  0  0  0  0  0  0  0
   26.2749   40.0752   85.4543 S   0  0  0  0  0  0  0  0  0  0  0  0
   27.9257   40.4395   83.2838 C   0  0  0  0  0  0  0  0  0  0  0  0
   28.2259   40.9871   82.2289 O   0  0  0  0  0  0  0  0  0  0  0  0
   28.4690   39.2373   83.6978 N   0  0  0  0  0  0  0  0  0  0  0  0
   28.4263   39.0449   84.6928 H   0  0  0  0  0  0  0  0  0  0  0  0
   29.2830   38.3228   82.9752 C   0  0  0  0  0  0  0  0  0  0  0  0
   28.6128   37.2497   82.3507 C   0  0  0  0  0  0  0  0  0  0  0  0
   26.8876   37.0861   82.4742 Cl  0  0  0  0  0  0  0  0  0  0  0  0
   29.2937   36.2758   81.6303 C   0  0  0  0  0  0  0  0  0  0  0  0
   30.6573   36.4037   81.5306 C   0  0  0  0  0  0  0  0  0  0  0  0
   31.3420   37.4304   82.0687 N   0  0  0  0  0  0  0  0  0  0  0  0
   30.6659   38.3913   82.7667 C   0  0  0  0  0  0  0  0  0  0  0  0
   31.5451   39.5302   83.1853 C   0  0  0  0  0  0  0  0  0  0  0  0
   21.1175   43.6873   89.2363 H   0  0  0  0  0  0  0  0  0  0  0  0
   19.8054   42.5355   89.3062 H   0  0  0  0  0  0  0  0  0  0  0  0
   19.8422   43.7423   88.0432 H   0  0  0  0  0  0  0  0  0  0  0  0
   23.1211   39.8136   85.6581 H   0  0  0  0  0  0  0  0  0  0  0  0
   19.5084   38.6862   86.9403 H   0  0  0  0  0  0  0  0  0  0  0  0
   20.5196   37.6513   85.9535 H   0  0  0  0  0  0  0  0  0  0  0  0
   17.9031   38.8896   85.1141 H   0  0  0  0  0  0  0  0  0  0  0  0
   18.2121   37.1735   85.5128 H   0  0  0  0  0  0  0  0  0  0  0  0
   20.0400   38.6344   82.1710 H   0  0  0  0  0  0  0  0  0  0  0  0
   20.9310   37.7926   83.4832 H   0  0  0  0  0  0  0  0  0  0  0  0
   19.6936   40.5094   83.6532 H   0  0  0  0  0  0  0  0  0  0  0  0
   21.4104   40.1262   83.5832 H   0  0  0  0  0  0  0  0  0  0  0  0
   18.0725   37.9579   81.7739 H   0  0  0  0  0  0  0  0  0  0  0  0
   17.4547   39.0803   83.0117 H   0  0  0  0  0  0  0  0  0  0  0  0
   15.8167   37.7091   83.6244 H   0  0  0  0  0  0  0  0  0  0  0  0
   16.8361   36.2870   83.5138 H   0  0  0  0  0  0  0  0  0  0  0  0
   26.9519   43.1120   83.8093 H   0  0  0  0  0  0  0  0  0  0  0  0
   28.7947   35.4881   81.1880 H   0  0  0  0  0  0  0  0  0  0  0  0
   31.1825   35.6778   81.0185 H   0  0  0  0  0  0  0  0  0  0  0  0
   32.5562   39.3226   82.9032 H   0  0  0  0  0  0  0  0  0  0  0  0
   31.4889   39.6527   84.2468 H   0  0  0  0  0  0  0  0  0  0  0  0
   31.2180   40.4286   82.7048 H   0  0  0  0  0  0  0  0  0  0  0  0
  1 20  1  0
  1  2  1  0
  3  4  1  0
  3 37  1  0
  3 38  1  0
  3 39  1  0
  4  5  2  0
  5  6  1  0
  6  1  1  0
  6  7  2  0
  7  8  1  0
  7 40  1  0
  8 10  1  0
  8  9  2  0
  9  4  1  0
 10 11  1  0
 11 12  1  0
 11 41  1  0
 11 42  1  0
 12 13  1  0
 12 43  1  0
 12 44  1  0
 13 16  1  0
 13 14  1  0
 14 15  1  0
 14 45  1  0
 14 46  1  0
 15 10  1  0
 15 47  1  0
 15 48  1  0
 16 17  1  0
 16 49  1  0
 16 50  1  0
 17 18  1  0
 17 51  1  0
 17 52  1  0
 18 19  1  0
 20 21  2  0
 21 22  1  0
 22 23  2  0
 22 53  1  0
 23 25  1  0
 23 24  1  0
 24 20  1  0
 25 26  2  0
 25 27  1  0
 27 29  1  0
 27 28  1  0
 29 30  2  0
 30 31  1  0
 30 32  1  0
 32 33  2  0
 32 54  1  0
 33 34  1  0
 33 55  1  0
 34 35  2  0
 35 36  1  0
 35 29  1  0
 36 56  1  0
 36 57  1  0
 36 58  1  0
M  END
>  <minimizedAffinity>  (6) 
-8.06649

>  <mol_id>  (6) 
43152

>  <source_index>  (6) 
5

>  <layer>  (6) 
L1

>  <uniprot>  (6) 
P06239

>  <paff>  (6) 
8.8239000000000001

>  <smiles>  (6) 
Cc1nc(Nc2ncc(s2)C(=O)Nc2c(C)nccc2Cl)cc(n1)N1CCN(CCO)CC1

$$$$
L1:P06239:72037
     RDKit          3D

 68 72  0  0  0  0  0  0  0  0999 V2000
   25.3975   38.4966   84.1284 N   0  0  0  0  0  0  0  0  0  0  0  0
   24.1932   38.7949   84.6601 N   0  0  0  0  0  0  0  0  0  0  0  0
   23.3591   37.8944   84.1100 C   0  0  0  0  0  0  0  0  0  0  0  0
   24.0356   37.0595   83.1718 C   0  0  0  0  0  0  0  0  0  0  0  0
   23.7375   36.0256   82.2748 C   0  0  0  0  0  0  0  0  0  0  0  0
   22.4798   35.5260   82.0386 N   0  0  0  0  0  0  0  0  0  0  0  0
   24.7463   35.4806   81.5612 N   0  0  0  0  0  0  0  0  0  0  0  0
   25.9912   35.9679   81.7232 C   0  0  0  0  0  0  0  0  0  0  0  0
   26.3892   36.9669   82.5268 N   0  0  0  0  0  0  0  0  0  0  0  0
   25.3572   37.4699   83.2265 C   0  0  0  0  0  0  0  0  0  0  0  0
   21.6516   35.9460   82.4287 H   0  0  0  0  0  0  0  0  0  0  0  0
   22.4072   34.8078   81.3324 H   0  0  0  0  0  0  0  0  0  0  0  0
   27.4841   43.2642   85.9282 C   0  0  0  0  0  0  0  0  0  0  0  0
   26.9227   43.7329   86.9166 O   0  0  0  0  0  0  0  0  0  0  0  0
   27.1512   42.0318   85.3811 N   0  0  0  0  0  0  0  0  0  0  0  0
   26.1649   41.2086   86.0834 C   0  0  0  0  0  0  0  0  0  0  0  0
   26.5185   39.7313   85.9762 C   0  0  0  0  0  0  0  0  0  0  0  0
   26.5764   39.2700   84.5094 C   0  0  0  0  0  0  0  0  0  0  0  0
   26.7967   40.4251   83.5215 C   0  0  0  0  0  0  0  0  0  0  0  0
   27.6810   41.5090   84.1204 C   0  0  0  0  0  0  0  0  0  0  0  0
   28.8003   45.3084   85.5626 C   0  0  0  0  0  0  0  0  0  0  0  0
   28.5894   44.0137   85.2710 C   0  0  0  0  0  0  0  0  0  0  0  0
   29.8781   46.1923   84.9985 C   0  0  0  0  0  0  0  0  0  0  0  0
   28.0796   47.5712   84.1868 C   0  0  0  0  0  0  0  0  0  0  0  0
   29.4427   47.1008   83.9259 N   0  0  0  0  0  0  0  0  0  0  0  0
   30.3426   48.2559   83.8210 C   0  0  0  0  0  0  0  0  0  0  0  0
   21.9533   37.8690   84.4983 C   0  0  0  0  0  0  0  0  0  0  0  0
   21.1006   38.9283   84.1575 C   0  0  0  0  0  0  0  0  0  0  0  0
   19.7555   38.8995   84.5342 C   0  0  0  0  0  0  0  0  0  0  0  0
   19.2537   37.7980   85.2317 C   0  0  0  0  0  0  0  0  0  0  0  0
   20.0965   36.7439   85.5825 C   0  0  0  0  0  0  0  0  0  0  0  0
   21.4409   36.7732   85.2055 C   0  0  0  0  0  0  0  0  0  0  0  0
   17.9477   37.7252   85.6592 O   0  0  0  0  0  0  0  0  0  0  0  0
   17.0068   37.3114   84.7434 C   0  0  0  0  0  0  0  0  0  0  0  0
   17.1920   37.4271   83.3632 C   0  0  0  0  0  0  0  0  0  0  0  0
   16.2109   36.9544   82.4905 C   0  0  0  0  0  0  0  0  0  0  0  0
   15.0569   36.3541   82.9957 C   0  0  0  0  0  0  0  0  0  0  0  0
   14.8847   36.2183   84.3736 C   0  0  0  0  0  0  0  0  0  0  0  0
   15.8639   36.6904   85.2484 C   0  0  0  0  0  0  0  0  0  0  0  0
   26.7301   35.5181   81.1604 H   0  0  0  0  0  0  0  0  0  0  0  0
   25.2002   41.3707   85.6498 H   0  0  0  0  0  0  0  0  0  0  0  0
   26.1603   41.4859   87.1168 H   0  0  0  0  0  0  0  0  0  0  0  0
   25.7767   39.1580   86.4919 H   0  0  0  0  0  0  0  0  0  0  0  0
   27.4845   39.5849   86.4124 H   0  0  0  0  0  0  0  0  0  0  0  0
   27.4332   38.6319   84.4494 H   0  0  0  0  0  0  0  0  0  0  0  0
   25.8486   40.8508   83.2671 H   0  0  0  0  0  0  0  0  0  0  0  0
   27.2844   40.0356   82.6524 H   0  0  0  0  0  0  0  0  0  0  0  0
   27.7582   42.3145   83.4203 H   0  0  0  0  0  0  0  0  0  0  0  0
   28.6363   41.0728   84.3252 H   0  0  0  0  0  0  0  0  0  0  0  0
   28.1564   45.7405   86.2436 H   0  0  0  0  0  0  0  0  0  0  0  0
   29.1974   43.5362   84.5873 H   0  0  0  0  0  0  0  0  0  0  0  0
   30.2712   46.7864   85.7969 H   0  0  0  0  0  0  0  0  0  0  0  0
   30.6010   45.5372   84.5589 H   0  0  0  0  0  0  0  0  0  0  0  0
   27.7734   48.2304   83.4016 H   0  0  0  0  0  0  0  0  0  0  0  0
   28.0550   48.0931   85.1206 H   0  0  0  0  0  0  0  0  0  0  0  0
   27.4151   46.7336   84.2288 H   0  0  0  0  0  0  0  0  0  0  0  0
   30.0058   48.9003   83.0360 H   0  0  0  0  0  0  0  0  0  0  0  0
   31.3340   47.9171   83.6037 H   0  0  0  0  0  0  0  0  0  0  0  0
   30.3439   48.7923   84.7469 H   0  0  0  0  0  0  0  0  0  0  0  0
   21.4681   39.7330   83.6260 H   0  0  0  0  0  0  0  0  0  0  0  0
   19.1347   39.6893   84.2980 H   0  0  0  0  0  0  0  0  0  0  0  0
   19.7275   35.9437   86.1197 H   0  0  0  0  0  0  0  0  0  0  0  0
   22.0599   35.9841   85.4489 H   0  0  0  0  0  0  0  0  0  0  0  0
   18.0512   37.8606   82.9906 H   0  0  0  0  0  0  0  0  0  0  0  0
   16.3389   37.0489   81.4708 H   0  0  0  0  0  0  0  0  0  0  0  0
   14.3298   36.0101   82.3492 H   0  0  0  0  0  0  0  0  0  0  0  0
   14.0334   35.7689   84.7456 H   0  0  0  0  0  0  0  0  0  0  0  0
   15.7430   36.5804   86.2674 H   0  0  0  0  0  0  0  0  0  0  0  0
  1  2  1  0
  2  3  2  0
  3 27  1  0
  3  4  1  0
  4  5  2  0
  5  6  1  0
  5  7  1  0
  6 11  1  0
  6 12  1  0
  7  8  2  0
  8  9  1  0
  8 40  1  0
  9 10  2  0
 10  1  1  0
 10  4  1  0
 13 14  2  0
 13 15  1  0
 15 16  1  0
 16 17  1  0
 16 41  1  0
 16 42  1  0
 17 18  1  0
 17 43  1  0
 17 44  1  0
 18  1  1  0
 18 19  1  0
 18 45  1  0
 19 20  1  0
 19 46  1  0
 19 47  1  0
 20 15  1  0
 20 48  1  0
 20 49  1  0
 21 22  2  0
 21 50  1  0
 22 13  1  0
 22 51  1  0
 23 21  1  0
 23 52  1  0
 23 53  1  0
 24 25  1  0
 24 54  1  0
 24 55  1  0
 24 56  1  0
 25 26  1  0
 25 23  1  0
 26 57  1  0
 26 58  1  0
 26 59  1  0
 27 28  2  0
 28 29  1  0
 28 60  1  0
 29 30  2  0
 29 61  1  0
 30 33  1  0
 30 31  1  0
 31 32  2  0
 31 62  1  0
 32 27  1  0
 32 63  1  0
 33 34  1  0
 34 35  2  0
 35 36  1  0
 35 64  1  0
 36 37  2  0
 36 65  1  0
 37 38  1  0
 37 66  1  0
 38 39  2  0
 38 67  1  0
 39 34  1  0
 39 68  1  0
M  END
>  <minimizedAffinity>  (7) 
-9.22569

>  <mol_id>  (7) 
72037

>  <source_index>  (7) 
6

>  <layer>  (7) 
L1

>  <uniprot>  (7) 
P06239

>  <paff>  (7) 
8.5850000000000009

>  <smiles>  (7) 
CN(C)C\C=C\C(=O)N1CCC(CC1)n1nc(-c2ccc(Oc3ccccc3)cc2)c2c(N)ncnc12

$$$$
L1:P06239:72174
     RDKit          3D

 59 62  0  0  0  0  0  0  0  0999 V2000
   25.9092   43.0818   87.4550 N   0  0  0  0  0  0  0  0  0  0  0  0
   26.3729   43.5414   88.2235 H   0  0  0  0  0  0  0  0  0  0  0  0
   22.7872   41.4711   90.7439 C   0  0  0  0  0  0  0  0  0  0  0  0
   23.1936   41.6502   89.3157 C   0  0  0  0  0  0  0  0  0  0  0  0
   24.3440   42.2908   89.0759 N   0  0  0  0  0  0  0  0  0  0  0  0
   24.6971   42.4554   87.7959 C   0  0  0  0  0  0  0  0  0  0  0  0
   23.8902   41.9931   86.7673 C   0  0  0  0  0  0  0  0  0  0  0  0
   22.6995   41.3640   87.0827 C   0  0  0  0  0  0  0  0  0  0  0  0
   22.3555   41.1970   88.3697 N   0  0  0  0  0  0  0  0  0  0  0  0
   21.8407   40.8867   86.1149 N   0  0  0  0  0  0  0  0  0  0  0  0
   22.4130   40.2697   84.9067 C   0  0  0  0  0  0  0  0  0  0  0  0
   21.4085   40.3293   83.7317 C   0  0  0  0  0  0  0  0  0  0  0  0
   20.0758   39.7531   83.9983 N   0  0  0  0  0  0  0  0  0  0  0  0
   19.7616   39.7189   85.4358 C   0  0  0  0  0  0  0  0  0  0  0  0
   20.3817   40.8856   86.2425 C   0  0  0  0  0  0  0  0  0  0  0  0
   19.8329   38.4731   83.3130 C   0  0  0  0  0  0  0  0  0  0  0  0
   18.3890   37.9347   83.2496 C   0  0  0  0  0  0  0  0  0  0  0  0
   17.4348   38.9902   83.2041 O   0  0  0  0  0  0  0  0  0  0  0  0
   16.5563   38.5767   83.1471 H   0  0  0  0  0  0  0  0  0  0  0  0
   26.6043   42.9103   86.3101 C   0  0  0  0  0  0  0  0  0  0  0  0
   27.1193   43.8414   85.5383 N   0  0  0  0  0  0  0  0  0  0  0  0
   27.7802   43.2791   84.4674 C   0  0  0  0  0  0  0  0  0  0  0  0
   27.7600   41.9020   84.4037 C   0  0  0  0  0  0  0  0  0  0  0  0
   26.9292   41.2976   85.7764 S   0  0  0  0  0  0  0  0  0  0  0  0
   28.3238   40.9904   83.4249 C   0  0  0  0  0  0  0  0  0  0  0  0
   28.6097   41.3309   82.2797 O   0  0  0  0  0  0  0  0  0  0  0  0
   28.6064   39.7277   83.9306 N   0  0  0  0  0  0  0  0  0  0  0  0
   28.7437   39.6674   84.9290 H   0  0  0  0  0  0  0  0  0  0  0  0
   29.0003   38.6042   83.1599 C   0  0  0  0  0  0  0  0  0  0  0  0
   27.9853   37.7151   82.7327 C   0  0  0  0  0  0  0  0  0  0  0  0
   26.5346   37.9221   83.0825 C   0  0  0  0  0  0  0  0  0  0  0  0
   28.3320   36.5746   81.9870 C   0  0  0  0  0  0  0  0  0  0  0  0
   29.6575   36.3161   81.6493 C   0  0  0  0  0  0  0  0  0  0  0  0
   30.6526   37.2123   82.0251 C   0  0  0  0  0  0  0  0  0  0  0  0
   30.3320   38.3597   82.7603 C   0  0  0  0  0  0  0  0  0  0  0  0
   31.6104   39.5165   82.9453 Cl  0  0  0  0  0  0  0  0  0  0  0  0
   23.5437   41.8756   91.3834 H   0  0  0  0  0  0  0  0  0  0  0  0
   22.6644   40.4287   90.9517 H   0  0  0  0  0  0  0  0  0  0  0  0
   21.8628   41.9809   90.9183 H   0  0  0  0  0  0  0  0  0  0  0  0
   24.1735   42.1164   85.7826 H   0  0  0  0  0  0  0  0  0  0  0  0
   22.6505   39.2472   85.1138 H   0  0  0  0  0  0  0  0  0  0  0  0
   23.2956   40.8084   84.6314 H   0  0  0  0  0  0  0  0  0  0  0  0
   21.8364   39.7996   82.9063 H   0  0  0  0  0  0  0  0  0  0  0  0
   21.2436   41.3693   83.5417 H   0  0  0  0  0  0  0  0  0  0  0  0
   20.1288   38.7983   85.8389 H   0  0  0  0  0  0  0  0  0  0  0  0
   18.6992   39.8116   85.5233 H   0  0  0  0  0  0  0  0  0  0  0  0
   20.1196   40.7773   87.2742 H   0  0  0  0  0  0  0  0  0  0  0  0
   20.0025   41.8091   85.8576 H   0  0  0  0  0  0  0  0  0  0  0  0
   20.4248   37.7322   83.8086 H   0  0  0  0  0  0  0  0  0  0  0  0
   20.0837   38.6710   82.2918 H   0  0  0  0  0  0  0  0  0  0  0  0
   18.2035   37.3368   84.1173 H   0  0  0  0  0  0  0  0  0  0  0  0
   18.2881   37.3552   82.3558 H   0  0  0  0  0  0  0  0  0  0  0  0
   28.2605   43.8534   83.7571 H   0  0  0  0  0  0  0  0  0  0  0  0
   26.4291   38.8251   83.6468 H   0  0  0  0  0  0  0  0  0  0  0  0
   26.1866   37.0948   83.6650 H   0  0  0  0  0  0  0  0  0  0  0  0
   25.9578   37.9935   82.1841 H   0  0  0  0  0  0  0  0  0  0  0  0
   27.5933   35.9199   81.6858 H   0  0  0  0  0  0  0  0  0  0  0  0
   29.9009   35.4629   81.1222 H   0  0  0  0  0  0  0  0  0  0  0  0
   31.6333   37.0303   81.7603 H   0  0  0  0  0  0  0  0  0  0  0  0
  1 20  1  0
  1  2  1  0
  3  4  1  0
  3 37  1  0
  3 38  1  0
  3 39  1  0
  4  5  2  0
  5  6  1  0
  6  1  1  0
  6  7  2  0
  7  8  1  0
  7 40  1  0
  8 10  1  0
  8  9  2  0
  9  4  1  0
 10 11  1  0
 11 12  1  0
 11 41  1  0
 11 42  1  0
 12 13  1  0
 12 43  1  0
 12 44  1  0
 13 16  1  0
 13 14  1  0
 14 15  1  0
 14 45  1  0
 14 46  1  0
 15 10  1  0
 15 47  1  0
 15 48  1  0
 16 17  1  0
 16 49  1  0
 16 50  1  0
 17 18  1  0
 17 51  1  0
 17 52  1  0
 18 19  1  0
 20 21  2  0
 21 22  1  0
 22 23  2  0
 22 53  1  0
 23 25  1  0
 23 24  1  0
 24 20  1  0
 25 26  2  0
 25 27  1  0
 27 29  1  0
 27 28  1  0
 29 30  2  0
 30 31  1  0
 30 32  1  0
 31 54  1  0
 31 55  1  0
 31 56  1  0
 32 33  2  0
 32 57  1  0
 33 34  1  0
 33 58  1  0
 34 35  2  0
 34 59  1  0
 35 36  1  0
 35 29  1  0
M  END
>  <minimizedAffinity>  (8) 
-8.28620

>  <mol_id>  (8) 
72174

>  <source_index>  (8) 
7

>  <layer>  (8) 
L1

>  <uniprot>  (8) 
P06239

>  <paff>  (8) 
8.8239000000000001

>  <smiles>  (8) 
Cc1cccc(c1NC(=O)c2cnc(s2)Nc3cc(nc(n3)C)N4CCN(CC4)CCO)Cl

$$$$
L1:P06239:102288
     RDKit          3D

 47 49  0  0  0  0  0  0  0  0999 V2000
   22.5223   37.3118   83.9290 N   0  0  0  0  0  0  0  0  0  0  0  0
   23.0804   36.4238   83.0161 C   0  0  0  0  0  0  0  0  0  0  0  0
   22.3781   35.4006   82.4746 N   0  0  0  0  0  0  0  0  0  0  0  0
   24.4123   36.7680   82.8183 C   0  0  0  0  0  0  0  0  0  0  0  0
   24.6946   37.8531   83.7122 C   0  0  0  0  0  0  0  0  0  0  0  0
   25.8353   38.6000   84.0669 C   0  0  0  0  0  0  0  0  0  0  0  0
   25.7106   39.6327   85.0082 C   0  0  0  0  0  0  0  0  0  0  0  0
   26.9191   40.4343   85.3973 C   0  0  0  0  0  0  0  0  0  0  0  0
   24.4492   39.8776   85.5645 C   0  0  0  0  0  0  0  0  0  0  0  0
   24.2500   40.9737   86.5757 C   0  0  0  0  0  0  0  0  0  0  0  0
   23.3371   39.1720   85.2637 N   0  0  0  0  0  0  0  0  0  0  0  0
   23.5106   38.1772   84.3670 C   0  0  0  0  0  0  0  0  0  0  0  0
   22.8393   34.7197   81.8672 H   0  0  0  0  0  0  0  0  0  0  0  0
   21.4177   35.1759   82.7208 H   0  0  0  0  0  0  0  0  0  0  0  0
   18.8751   38.1314   84.0501 C   0  0  0  0  0  0  0  0  0  0  0  0
   18.4923   37.3832   85.1628 C   0  0  0  0  0  0  0  0  0  0  0  0
   19.4331   36.6235   85.8509 C   0  0  0  0  0  0  0  0  0  0  0  0
   19.0198   35.9203   86.9164 F   0  0  0  0  0  0  0  0  0  0  0  0
   20.7705   36.5623   85.4565 C   0  0  0  0  0  0  0  0  0  0  0  0
   21.7045   35.6708   86.2268 C   0  0  0  0  0  0  0  0  0  0  0  0
   21.1623   37.3422   84.3475 C   0  0  0  0  0  0  0  0  0  0  0  0
   20.2268   38.1430   83.6413 C   0  0  0  0  0  0  0  0  0  0  0  0
   20.6263   38.9962   82.4596 C   0  0  0  0  0  0  0  0  0  0  0  0
   17.0709   38.2198   82.4839 C   0  0  0  0  0  0  0  0  0  0  0  0
   18.0136   38.8968   83.3051 O   0  0  0  0  0  0  0  0  0  0  0  0
   25.2969   36.0826   81.8864 C   0  0  0  0  0  0  0  0  0  0  0  0
   26.0877   36.8843   81.1144 N   0  0  0  0  0  0  0  0  0  0  0  0
   25.3233   34.8648   81.7319 O   0  0  0  0  0  0  0  0  0  0  0  0
   26.6897   36.4306   80.4421 H   0  0  0  0  0  0  0  0  0  0  0  0
   26.0036   37.8886   81.1041 H   0  0  0  0  0  0  0  0  0  0  0  0
   26.7510   38.3901   83.6397 H   0  0  0  0  0  0  0  0  0  0  0  0
   27.7711   40.0813   84.8547 H   0  0  0  0  0  0  0  0  0  0  0  0
   27.0954   40.3270   86.4472 H   0  0  0  0  0  0  0  0  0  0  0  0
   26.7521   41.4659   85.1673 H   0  0  0  0  0  0  0  0  0  0  0  0
   25.1804   41.4732   86.7482 H   0  0  0  0  0  0  0  0  0  0  0  0
   23.8958   40.5524   87.4933 H   0  0  0  0  0  0  0  0  0  0  0  0
   23.5321   41.6750   86.2047 H   0  0  0  0  0  0  0  0  0  0  0  0
   17.5092   37.3930   85.4765 H   0  0  0  0  0  0  0  0  0  0  0  0
   21.1674   35.1896   87.0173 H   0  0  0  0  0  0  0  0  0  0  0  0
   22.4978   36.2577   86.6403 H   0  0  0  0  0  0  0  0  0  0  0  0
   22.1130   34.9306   85.5710 H   0  0  0  0  0  0  0  0  0  0  0  0
   21.6765   38.8920   82.2833 H   0  0  0  0  0  0  0  0  0  0  0  0
   20.3994   40.0211   82.6667 H   0  0  0  0  0  0  0  0  0  0  0  0
   20.0859   38.6795   81.5921 H   0  0  0  0  0  0  0  0  0  0  0  0
   16.4700   38.9371   81.9649 H   0  0  0  0  0  0  0  0  0  0  0  0
   16.4439   37.6038   83.0940 H   0  0  0  0  0  0  0  0  0  0  0  0
   17.5894   37.6090   81.7747 H   0  0  0  0  0  0  0  0  0  0  0  0
  1  2  1  0
  2  3  1  0
  2  4  2  0
  3 13  1  0
  3 14  1  0
  4 26  1  0
  4  5  1  0
  5  6  2  0
  6  7  1  0
  6 31  1  0
  7  8  1  0
  7  9  2  0
  8 32  1  0
  8 33  1  0
  8 34  1  0
  9 10  1  0
  9 11  1  0
 10 35  1  0
 10 36  1  0
 10 37  1  0
 11 12  2  0
 12  1  1  0
 12  5  1  0
 15 16  2  0
 16 17  1  0
 16 38  1  0
 17 18  1  0
 17 19  2  0
 19 20  1  0
 19 21  1  0
 20 39  1  0
 20 40  1  0
 20 41  1  0
 21  1  1  0
 21 22  2  0
 22 23  1  0
 22 15  1  0
 23 42  1  0
 23 43  1  0
 23 44  1  0
 24 25  1  0
 24 45  1  0
 24 46  1  0
 24 47  1  0
 25 15  1  0
 26 27  1  0
 26 28  2  0
 27 29  1  0
 27 30  1  0
M  END
>  <minimizedAffinity>  (9) 
-8.48188

>  <mol_id>  (9) 
102288

>  <source_index>  (9) 
8

>  <layer>  (9) 
L1

>  <uniprot>  (9) 
P06239

>  <paff>  (9) 
7.1249000000000002

>  <smiles>  (9) 
COc1cc(F)c(C)c(-n2c(N)c(C(N)=O)c3cc(C)c(C)nc32)c1C

$$$$
L1:P06239:104832
     RDKit          3D

 41 43  0  0  0  0  0  0  0  0999 V2000
   25.6128   35.4057   81.7929 C   0  0  0  0  0  0  0  0  0  0  0  0
   25.1493   36.6340   82.5218 C   0  0  0  0  0  0  0  0  0  0  0  0
   23.9587   36.5937   83.2628 C   0  0  0  0  0  0  0  0  0  0  0  0
   23.5381   37.7496   83.9496 C   0  0  0  0  0  0  0  0  0  0  0  0
   22.4263   38.1069   84.7826 C   0  0  0  0  0  0  0  0  0  0  0  0
   22.6604   39.4032   85.2284 C   0  0  0  0  0  0  0  0  0  0  0  0
   21.8972   40.1692   86.0437 N   0  0  0  0  0  0  0  0  0  0  0  0
   23.8415   39.8613   84.6576 N   0  0  0  0  0  0  0  0  0  0  0  0
   24.3700   38.8607   83.8622 C   0  0  0  0  0  0  0  0  0  0  0  0
   25.5209   38.9512   83.1606 N   0  0  0  0  0  0  0  0  0  0  0  0
   25.8818   37.8273   82.5022 C   0  0  0  0  0  0  0  0  0  0  0  0
   27.1690   37.9306   81.7298 C   0  0  0  0  0  0  0  0  0  0  0  0
   22.1555   41.0935   86.3758 H   0  0  0  0  0  0  0  0  0  0  0  0
   21.0758   39.7678   86.5024 H   0  0  0  0  0  0  0  0  0  0  0  0
   24.4170   41.1478   84.8280 C   0  0  0  0  0  0  0  0  0  0  0  0
   25.4689   41.3205   85.7619 C   0  0  0  0  0  0  0  0  0  0  0  0
   26.0353   40.1950   86.5863 C   0  0  0  0  0  0  0  0  0  0  0  0
   26.0021   42.6060   85.9375 C   0  0  0  0  0  0  0  0  0  0  0  0
   25.5190   43.6712   85.1878 C   0  0  0  0  0  0  0  0  0  0  0  0
   26.0471   44.8926   85.3582 F   0  0  0  0  0  0  0  0  0  0  0  0
   24.4941   43.4976   84.2622 C   0  0  0  0  0  0  0  0  0  0  0  0
   24.0528   44.5847   83.5509 O   0  0  0  0  0  0  0  0  0  0  0  0
   23.9255   42.2346   84.0761 C   0  0  0  0  0  0  0  0  0  0  0  0
   22.5892   42.0749   82.9810 Cl  0  0  0  0  0  0  0  0  0  0  0  0
   24.5592   45.3604   83.8560 H   0  0  0  0  0  0  0  0  0  0  0  0
   21.2526   37.3256   85.1497 C   0  0  0  0  0  0  0  0  0  0  0  0
   20.5088   36.8373   84.1143 N   0  0  0  0  0  0  0  0  0  0  0  0
   20.8827   37.1412   86.3061 O   0  0  0  0  0  0  0  0  0  0  0  0
   20.6851   37.0764   83.1517 H   0  0  0  0  0  0  0  0  0  0  0  0
   19.6776   36.3141   84.3506 H   0  0  0  0  0  0  0  0  0  0  0  0
   24.9071   34.6152   81.9415 H   0  0  0  0  0  0  0  0  0  0  0  0
   26.5683   35.1064   82.1701 H   0  0  0  0  0  0  0  0  0  0  0  0
   25.6932   35.6202   80.7477 H   0  0  0  0  0  0  0  0  0  0  0  0
   23.3981   35.7282   83.3042 H   0  0  0  0  0  0  0  0  0  0  0  0
   27.5730   38.9153   81.8399 H   0  0  0  0  0  0  0  0  0  0  0  0
   26.9804   37.7361   80.6947 H   0  0  0  0  0  0  0  0  0  0  0  0
   27.8690   37.2139   82.1056 H   0  0  0  0  0  0  0  0  0  0  0  0
   25.5301   39.2841   86.3413 H   0  0  0  0  0  0  0  0  0  0  0  0
   25.8986   40.4102   87.6255 H   0  0  0  0  0  0  0  0  0  0  0  0
   27.0796   40.0908   86.3780 H   0  0  0  0  0  0  0  0  0  0  0  0
   26.7554   42.7609   86.6256 H   0  0  0  0  0  0  0  0  0  0  0  0
  1  2  1  0
  1 31  1  0
  1 32  1  0
  1 33  1  0
  2  3  2  0
  3  4  1  0
  3 34  1  0
  4  5  1  0
  5 26  1  0
  5  6  2  0
  6  7  1  0
  6  8  1  0
  7 13  1  0
  7 14  1  0
  8 15  1  0
  8  9  1  0
  9 10  1  0
  9  4  2  0
 10 11  2  0
 11 12  1  0
 11  2  1  0
 12 35  1  0
 12 36  1  0
 12 37  1  0
 15 16  2  0
 16 17  1  0
 16 18  1  0
 17 38  1  0
 17 39  1  0
 17 40  1  0
 18 19  2  0
 18 41  1  0
 19 20  1  0
 19 21  1  0
 21 22  1  0
 21 23  2  0
 22 25  1  0
 23 24  1  0
 23 15  1  0
 26 27  1  0
 26 28  2  0
 27 29  1  0
 27 30  1  0
M  END
>  <minimizedAffinity>  (10) 
-8.89375

>  <mol_id>  (10) 
104832

>  <source_index>  (10) 
9

>  <layer>  (10) 
L1

>  <uniprot>  (10) 
P06239

>  <paff>  (10) 
7.3010000000000002

>  <smiles>  (10) 
Cc1cc2c(C(N)=O)c(N)n(-c3c(C)cc(F)c(O)c3Cl)c2nc1C

$$$$
