L2:P31645:2227
     RDKit          3D

 47 49  0  0  0  0  0  0  0  0999 V2000
  130.2318  130.1203  121.2936 N   0  0  0  0  0  0  0  0  0  0  0  0
  130.0906  129.8462  119.8528 C   0  0  0  0  0  0  0  0  0  0  0  0
  131.5017  129.8900  119.2778 C   0  0  0  0  0  0  0  0  0  0  0  0
  132.2422  130.8416  120.2180 C   0  0  1  0  0  0  0  0  0  0  0  0
  131.7186  132.2659  120.0127 C   0  0  0  0  0  0  0  0  0  0  0  0
  132.1557  133.2364  121.1004 C   0  0  0  0  0  0  0  0  0  0  0  0
  132.2522  132.6640  122.4950 C   0  0  0  0  0  0  0  0  0  0  0  0
  132.5593  133.3879  123.4308 O   0  0  0  0  0  0  0  0  0  0  0  0
  132.0466  131.1832  122.7375 C   0  0  0  0  0  0  0  0  0  0  0  0
  131.6489  130.3342  121.5482 C   0  0  1  0  0  0  0  0  0  0  0  0
  133.7474  130.7352  120.0761 C   0  0  0  0  0  0  0  0  0  0  0  0
  134.5028  129.7415  120.7019 C   0  0  0  0  0  0  0  0  0  0  0  0
  135.8576  129.5854  120.4407 C   0  0  0  0  0  0  0  0  0  0  0  0
  136.5190  130.4520  119.5804 C   0  0  0  0  0  0  0  0  0  0  0  0
  135.7954  131.5108  118.9998 C   0  0  0  0  0  0  0  0  0  0  0  0
  134.4327  131.6161  119.2269 C   0  0  0  0  0  0  0  0  0  0  0  0
  137.8292  130.4080  119.2717 O   0  0  0  0  0  0  0  0  0  0  0  0
  138.5517  129.1795  119.4802 C   0  0  0  0  0  0  0  0  0  0  0  0
  136.5452  132.4003  118.2872 O   0  0  0  0  0  0  0  0  0  0  0  0
  135.8722  133.3047  117.4205 C   0  0  0  0  0  0  0  0  0  0  0  0
  127.8411  130.3297  121.8027 C   0  0  0  0  0  0  0  0  0  0  0  0
  129.2047  130.9903  121.8305 C   0  0  0  0  0  0  0  0  0  0  0  0
  129.4724  130.6053  119.3629 H   0  0  0  0  0  0  0  0  0  0  0  0
  129.5928  128.8913  119.6887 H   0  0  0  0  0  0  0  0  0  0  0  0
  131.5450  130.2119  118.2502 H   0  0  0  0  0  0  0  0  0  0  0  0
  131.9699  128.9091  119.3099 H   0  0  0  0  0  0  0  0  0  0  0  0
  130.6351  132.2488  119.9661 H   0  0  0  0  0  0  0  0  0  0  0  0
  132.0227  132.6481  119.0471 H   0  0  0  0  0  0  0  0  0  0  0  0
  131.4979  134.1069  121.1384 H   0  0  0  0  0  0  0  0  0  0  0  0
  133.1481  133.6210  120.8414 H   0  0  0  0  0  0  0  0  0  0  0  0
  131.3571  131.0523  123.5695 H   0  0  0  0  0  0  0  0  0  0  0  0
  133.0018  130.7885  123.0926 H   0  0  0  0  0  0  0  0  0  0  0  0
  132.0742  129.3427  121.7254 H   0  0  0  0  0  0  0  0  0  0  0  0
  134.0507  129.0504  121.3958 H   0  0  0  0  0  0  0  0  0  0  0  0
  136.4131  128.7890  120.9135 H   0  0  0  0  0  0  0  0  0  0  0  0
  133.9000  132.4018  118.7139 H   0  0  0  0  0  0  0  0  0  0  0  0
  139.5174  129.3252  119.0098 H   0  0  0  0  0  0  0  0  0  0  0  0
  138.0316  128.3528  118.9944 H   0  0  0  0  0  0  0  0  0  0  0  0
  138.6901  128.9467  120.5393 H   0  0  0  0  0  0  0  0  0  0  0  0
  136.6384  133.8080  116.8404 H   0  0  0  0  0  0  0  0  0  0  0  0
  135.3009  134.0348  117.9882 H   0  0  0  0  0  0  0  0  0  0  0  0
  135.2028  132.7686  116.7477 H   0  0  0  0  0  0  0  0  0  0  0  0
  127.1021  131.0204  122.1960 H   0  0  0  0  0  0  0  0  0  0  0  0
  127.8357  129.4194  122.3992 H   0  0  0  0  0  0  0  0  0  0  0  0
  127.5483  130.0700  120.7868 H   0  0  0  0  0  0  0  0  0  0  0  0
  129.4661  131.2261  122.8572 H   0  0  0  0  0  0  0  0  0  0  0  0
  129.1373  131.9473  121.2959 H   0  0  0  0  0  0  0  0  0  0  0  0
  1  2  1  0
  2  3  1  0
  2 23  1  0
  2 24  1  0
  3  4  1  0
  3 25  1  0
  3 26  1  0
  4 11  1  1
  4  5  1  0
  5  6  1  0
  5 27  1  0
  5 28  1  0
  6  7  1  0
  6 29  1  0
  6 30  1  0
  7  8  2  0
  7  9  1  0
  9 10  1  0
  9 31  1  0
  9 32  1  0
 10  1  1  0
 10  4  1  0
 10 33  1  1
 11 12  2  0
 12 13  1  0
 12 34  1  0
 13 14  2  0
 13 35  1  0
 14 17  1  0
 14 15  1  0
 15 19  1  0
 15 16  2  0
 16 11  1  0
 16 36  1  0
 17 18  1  0
 18 37  1  0
 18 38  1  0
 18 39  1  0
 19 20  1  0
 20 40  1  0
 20 41  1  0
 20 42  1  0
 21 22  1  0
 21 43  1  0
 21 44  1  0
 21 45  1  0
 22  1  1  0
 22 46  1  0
 22 47  1  0
M  END
>  <minimizedAffinity>  (1) 
-7.36637

>  <mol_id>  (1) 
2227

>  <source_index>  (1) 
0

>  <layer>  (1) 
L2

>  <uniprot>  (1) 
P31645

>  <paff>  (1) 
7.3010000000000002

>  <smiles>  (1) 
CCN1CC[C@@]2(c3ccc(OC)c(OC)c3)CCC(=O)C[C@@H]12

>  <aimnet_interaction_kcal_mol>  (1) 
-54.374695812441345

$$$$
L2:P31645:24100
     RDKit          3D

 50 52  0  0  0  0  0  0  0  0999 V2000
  139.8638  125.9426  117.0856 C   0  0  0  0  0  0  0  0  0  0  0  0
  139.6173  127.2702  117.4171 C   0  0  0  0  0  0  0  0  0  0  0  0
  138.4473  127.9382  117.0380 C   0  0  0  0  0  0  0  0  0  0  0  0
  137.4811  127.1935  116.3686 C   0  0  0  0  0  0  0  0  0  0  0  0
  137.6996  125.8674  116.0314 C   0  0  0  0  0  0  0  0  0  0  0  0
  138.8842  125.2406  116.3645 C   0  0  0  0  0  0  0  0  0  0  0  0
  138.2912  129.4343  117.2846 C   0  0  1  0  0  0  0  0  0  0  0  0
  136.8637  129.9599  117.0452 C   0  0  0  0  0  0  0  0  0  0  0  0
  135.8630  129.5942  118.1460 C   0  0  0  0  0  0  0  0  0  0  0  0
  136.3939  130.1183  119.4531 C   0  0  0  0  0  0  0  0  0  0  0  0
  135.8027  130.9554  120.1180 O   0  0  0  0  0  0  0  0  0  0  0  0
  137.7448  129.5712  119.8036 C   0  0  0  0  0  0  0  0  0  0  0  0
  138.7416  129.8796  118.7011 C   0  0  2  0  0  0  0  0  0  0  0  0
  138.9461  131.3145  118.5472 N   0  0  0  0  0  0  0  0  0  0  0  0
  139.6985  131.9231  119.6124 C   0  0  0  0  0  0  0  0  0  0  0  0
  139.5163  131.5457  117.2132 C   0  0  0  0  0  0  0  0  0  0  0  0
  139.2458  130.2647  116.4117 C   0  0  0  0  0  0  0  0  0  0  0  0
  142.1379  126.0906  118.7161 C   0  0  0  0  0  0  0  0  0  0  0  0
  141.3175  125.0115  117.5074 S   0  0  0  0  0  0  0  0  0  0  0  0
  139.1935  123.9575  116.0033 O   0  0  0  0  0  0  0  0  0  0  0  0
  138.1754  122.9347  116.0812 C   0  0  0  0  0  0  0  0  0  0  0  0
  138.8257  121.7488  116.7491 C   0  0  0  0  0  0  0  0  0  0  0  0
  137.6811  122.6013  114.6948 C   0  0  0  0  0  0  0  0  0  0  0  0
  140.3639  127.7900  117.9928 H   0  0  0  0  0  0  0  0  0  0  0  0
  136.5288  127.6212  116.0998 H   0  0  0  0  0  0  0  0  0  0  0  0
  136.9331  125.3209  115.5050 H   0  0  0  0  0  0  0  0  0  0  0  0
  136.5003  129.6375  116.0696 H   0  0  0  0  0  0  0  0  0  0  0  0
  136.9135  131.0490  116.9872 H   0  0  0  0  0  0  0  0  0  0  0  0
  135.7634  128.5096  118.2296 H   0  0  0  0  0  0  0  0  0  0  0  0
  134.8732  130.0041  117.9581 H   0  0  0  0  0  0  0  0  0  0  0  0
  137.6705  128.4903  119.9513 H   0  0  0  0  0  0  0  0  0  0  0  0
  138.1049  129.9604  120.7487 H   0  0  0  0  0  0  0  0  0  0  0  0
  139.6826  129.3853  118.9698 H   0  0  0  0  0  0  0  0  0  0  0  0
  139.1511  131.8659  120.5524 H   0  0  0  0  0  0  0  0  0  0  0  0
  139.8748  132.9709  119.3807 H   0  0  0  0  0  0  0  0  0  0  0  0
  140.6774  131.4450  119.7719 H   0  0  0  0  0  0  0  0  0  0  0  0
  140.5877  131.7553  117.2610 H   0  0  0  0  0  0  0  0  0  0  0  0
  139.0466  132.4185  116.7584 H   0  0  0  0  0  0  0  0  0  0  0  0
  140.1737  129.7261  116.2283 H   0  0  0  0  0  0  0  0  0  0  0  0
  138.8156  130.4863  115.4359 H   0  0  0  0  0  0  0  0  0  0  0  0
  142.9953  125.5364  119.0960 H   0  0  0  0  0  0  0  0  0  0  0  0
  141.4557  126.2987  119.5362 H   0  0  0  0  0  0  0  0  0  0  0  0
  142.4905  127.0071  118.2470 H   0  0  0  0  0  0  0  0  0  0  0  0
  137.3489  123.2815  116.7055 H   0  0  0  0  0  0  0  0  0  0  0  0
  139.6558  121.3878  116.1443 H   0  0  0  0  0  0  0  0  0  0  0  0
  138.1108  120.9376  116.8709 H   0  0  0  0  0  0  0  0  0  0  0  0
  139.1883  122.0292  117.7313 H   0  0  0  0  0  0  0  0  0  0  0  0
  138.5175  122.3644  114.0444 H   0  0  0  0  0  0  0  0  0  0  0  0
  137.1225  123.4217  114.2520 H   0  0  0  0  0  0  0  0  0  0  0  0
  137.0318  121.7290  114.7570 H   0  0  0  0  0  0  0  0  0  0  0  0
  1  2  2  0
  2  3  1  0
  2 24  1  0
  3  4  2  0
  4  5  1  0
  4 25  1  0
  5  6  2  0
  5 26  1  0
  6 20  1  0
  6  1  1  0
  7  3  1  1
  7  8  1  0
  8  9  1  0
  8 27  1  0
  8 28  1  0
  9 10  1  0
  9 29  1  0
  9 30  1  0
 10 11  2  0
 10 12  1  0
 12 13  1  0
 12 31  1  0
 12 32  1  0
 13 14  1  0
 13  7  1  0
 13 33  1  1
 14 15  1  0
 14 16  1  0
 15 34  1  0
 15 35  1  0
 15 36  1  0
 16 17  1  0
 16 37  1  0
 16 38  1  0
 17  7  1  0
 17 39  1  0
 17 40  1  0
 18 19  1  0
 18 41  1  0
 18 42  1  0
 18 43  1  0
 19  1  1  0
 20 21  1  0
 21 22  1  0
 21 23  1  0
 21 44  1  0
 22 45  1  0
 22 46  1  0
 22 47  1  0
 23 48  1  0
 23 49  1  0
 23 50  1  0
M  END
>  <minimizedAffinity>  (2) 
-7.44552

>  <mol_id>  (2) 
24100

>  <source_index>  (2) 
1

>  <layer>  (2) 
L2

>  <uniprot>  (2) 
P31645

>  <paff>  (2) 
6.5228999999999999

>  <smiles>  (2) 
CSc1cc([C@@]23CCC(=O)C[C@@H]2N(C)CC3)ccc1OC(C)C

>  <aimnet_interaction_kcal_mol>  (2) 
-52.568599061107491

$$$$
L2:P31645:33467
     RDKit          3D

 46 48  0  0  0  0  0  0  0  0999 V2000
  132.2309  131.7022  120.3450 C   0  0  2  0  0  0  0  0  0  0  0  0
  131.3924  130.6025  119.6803 C   0  0  0  0  0  0  0  0  0  0  0  0
  129.8838  130.7362  119.9122 C   0  0  0  0  0  0  0  0  0  0  0  0
  129.6291  130.8158  121.3753 C   0  0  0  0  0  0  0  0  0  0  0  0
  128.9410  130.0170  122.0883 N   0  0  0  0  0  0  0  0  0  0  0  0
  128.1698  129.1126  121.3213 O   0  0  0  0  0  0  0  0  0  0  0  0
  130.3609  131.8797  122.1066 C   0  0  0  0  0  0  0  0  0  0  0  0
  131.8761  131.8648  121.8369 C   0  0  2  0  0  0  0  0  0  0  0  0
  132.5131  133.1548  122.1835 N   0  0  0  0  0  0  0  0  0  0  0  0
  132.0380  133.6534  123.4562 C   0  0  0  0  0  0  0  0  0  0  0  0
  132.2728  134.0426  121.0202 C   0  0  0  0  0  0  0  0  0  0  0  0
  131.8939  133.1208  119.8600 C   0  0  0  0  0  0  0  0  0  0  0  0
  128.1514  128.3466  121.9119 H   0  0  0  0  0  0  0  0  0  0  0  0
  136.2353  130.3626  119.3928 C   0  0  0  0  0  0  0  0  0  0  0  0
  135.4499  129.6799  120.3157 C   0  0  0  0  0  0  0  0  0  0  0  0
  134.2207  130.1846  120.7066 C   0  0  0  0  0  0  0  0  0  0  0  0
  133.6949  131.3457  120.1419 C   0  0  0  0  0  0  0  0  0  0  0  0
  134.5271  132.0724  119.2851 C   0  0  0  0  0  0  0  0  0  0  0  0
  135.7736  131.6013  118.8965 C   0  0  0  0  0  0  0  0  0  0  0  0
  137.9544  128.6895  119.3499 C   0  0  0  0  0  0  0  0  0  0  0  0
  137.4379  129.9639  118.9369 O   0  0  0  0  0  0  0  0  0  0  0  0
  136.6519  132.2735  118.0973 O   0  0  0  0  0  0  0  0  0  0  0  0
  136.1874  133.3732  117.3217 C   0  0  0  0  0  0  0  0  0  0  0  0
  131.7104  129.6338  120.0712 H   0  0  0  0  0  0  0  0  0  0  0  0
  131.6056  130.5674  118.6165 H   0  0  0  0  0  0  0  0  0  0  0  0
  129.3556  129.8979  119.4778 H   0  0  0  0  0  0  0  0  0  0  0  0
  129.5000  131.6386  119.4412 H   0  0  0  0  0  0  0  0  0  0  0  0
  130.1711  131.7796  123.1734 H   0  0  0  0  0  0  0  0  0  0  0  0
  129.9539  132.8461  121.7997 H   0  0  0  0  0  0  0  0  0  0  0  0
  132.3283  131.0814  122.4469 H   0  0  0  0  0  0  0  0  0  0  0  0
  132.0625  132.8559  124.1991 H   0  0  0  0  0  0  0  0  0  0  0  0
  131.0094  134.0094  123.4085 H   0  0  0  0  0  0  0  0  0  0  0  0
  132.6602  134.4670  123.8214 H   0  0  0  0  0  0  0  0  0  0  0  0
  133.1685  134.6243  120.8042 H   0  0  0  0  0  0  0  0  0  0  0  0
  131.4515  134.7356  121.2034 H   0  0  0  0  0  0  0  0  0  0  0  0
  132.3721  133.3948  118.9300 H   0  0  0  0  0  0  0  0  0  0  0  0
  130.8279  133.2089  119.6689 H   0  0  0  0  0  0  0  0  0  0  0  0
  135.7955  128.7438  120.7280 H   0  0  0  0  0  0  0  0  0  0  0  0
  133.6637  129.6254  121.4455 H   0  0  0  0  0  0  0  0  0  0  0  0
  134.2232  133.0389  118.9165 H   0  0  0  0  0  0  0  0  0  0  0  0
  138.8852  128.5548  118.8114 H   0  0  0  0  0  0  0  0  0  0  0  0
  137.2616  127.8945  119.0726 H   0  0  0  0  0  0  0  0  0  0  0  0
  138.1648  128.6595  120.4191 H   0  0  0  0  0  0  0  0  0  0  0  0
  136.9688  133.6013  116.6014 H   0  0  0  0  0  0  0  0  0  0  0  0
  135.9939  134.2466  117.9439 H   0  0  0  0  0  0  0  0  0  0  0  0
  135.2752  133.1042  116.7905 H   0  0  0  0  0  0  0  0  0  0  0  0
  1 17  1  1
  1  2  1  0
  2  3  1  0
  2 24  1  0
  2 25  1  0
  3  4  1  0
  3 26  1  0
  3 27  1  0
  4  5  2  0
  4  7  1  0
  5  6  1  0
  6 13  1  0
  7  8  1  0
  7 28  1  0
  7 29  1  0
  8  9  1  0
  8  1  1  0
  8 30  1  1
  9 10  1  0
  9 11  1  0
 10 31  1  0
 10 32  1  0
 10 33  1  0
 11 12  1  0
 11 34  1  0
 11 35  1  0
 12  1  1  0
 12 36  1  0
 12 37  1  0
 14 15  2  0
 15 16  1  0
 15 38  1  0
 16 17  2  0
 16 39  1  0
 17 18  1  0
 18 19  2  0
 18 40  1  0
 19 22  1  0
 19 14  1  0
 20 21  1  0
 20 41  1  0
 20 42  1  0
 20 43  1  0
 21 14  1  0
 22 23  1  0
 23 44  1  0
 23 45  1  0
 23 46  1  0
M  END
>  <minimizedAffinity>  (3) 
-7.76673

>  <mol_id>  (3) 
33467

>  <source_index>  (3) 
2

>  <layer>  (3) 
L2

>  <uniprot>  (3) 
P31645

>  <paff>  (3) 
7.3010000000000002

>  <smiles>  (3) 
COc3ccc([C@@]12CC/C(=N\O)C[C@@H]1N(C)CC2)cc3OC

>  <aimnet_interaction_kcal_mol>  (3) 
-56.767826768315011

$$$$
L2:P31645:67792
     RDKit          3D

 51 54  0  0  0  0  0  0  0  0999 V2000
  139.8699  125.0775  117.0474 C   0  0  0  0  0  0  0  0  0  0  0  0
  139.5531  126.4095  117.2809 C   0  0  0  0  0  0  0  0  0  0  0  0
  138.3937  127.0060  116.7748 C   0  0  0  0  0  0  0  0  0  0  0  0
  137.6304  126.2527  115.8900 C   0  0  0  0  0  0  0  0  0  0  0  0
  137.9334  124.9205  115.6412 C   0  0  0  0  0  0  0  0  0  0  0  0
  139.0202  124.3036  116.2359 C   0  0  0  0  0  0  0  0  0  0  0  0
  138.0048  128.4195  117.1946 C   0  0  1  0  0  0  0  0  0  0  0  0
  136.4990  128.6828  117.0464 C   0  0  0  0  0  0  0  0  0  0  0  0
  136.0357  130.0124  117.6518 C   0  0  0  0  0  0  0  0  0  0  0  0
  136.6841  130.3231  118.9882 C   0  0  0  0  0  0  0  0  0  0  0  0
  136.6964  131.4449  119.4743 O   0  0  0  0  0  0  0  0  0  0  0  0
  137.3395  129.1436  119.6024 C   0  0  0  0  0  0  0  0  0  0  0  0
  138.4612  128.6892  118.6622 C   0  0  2  0  0  0  0  0  0  0  0  0
  139.4537  129.7569  118.5836 N   0  0  0  0  0  0  0  0  0  0  0  0
  140.4371  129.7445  119.6406 C   0  0  0  0  0  0  0  0  0  0  0  0
  139.9967  129.8154  117.2416 C   0  0  0  0  0  0  0  0  0  0  0  0
  138.8083  129.4572  116.3743 C   0  0  0  0  0  0  0  0  0  0  0  0
  141.7892  125.1583  118.4734 C   0  0  0  0  0  0  0  0  0  0  0  0
  140.9654  124.4472  117.5553 O   0  0  0  0  0  0  0  0  0  0  0  0
  139.2583  122.9476  116.1434 O   0  0  0  0  0  0  0  0  0  0  0  0
  139.2968  122.3861  114.8366 C   0  0  0  0  0  0  0  0  0  0  0  0
  139.1746  120.8976  114.9441 C   0  0  0  0  0  0  0  0  0  0  0  0
  138.6657  120.1009  113.7892 C   0  0  0  0  0  0  0  0  0  0  0  0
  137.8335  120.2463  115.0243 C   0  0  0  0  0  0  0  0  0  0  0  0
  140.2244  126.9716  117.9081 H   0  0  0  0  0  0  0  0  0  0  0  0
  136.7750  126.6870  115.3952 H   0  0  0  0  0  0  0  0  0  0  0  0
  137.2892  124.3354  114.9989 H   0  0  0  0  0  0  0  0  0  0  0  0
  135.9344  127.8676  117.5013 H   0  0  0  0  0  0  0  0  0  0  0  0
  136.2288  128.6830  115.9905 H   0  0  0  0  0  0  0  0  0  0  0  0
  134.9557  129.9988  117.8109 H   0  0  0  0  0  0  0  0  0  0  0  0
  136.2432  130.8497  116.9874 H   0  0  0  0  0  0  0  0  0  0  0  0
  136.6090  128.3419  119.7253 H   0  0  0  0  0  0  0  0  0  0  0  0
  137.7641  129.3630  120.5749 H   0  0  0  0  0  0  0  0  0  0  0  0
  138.8795  127.7927  119.1163 H   0  0  0  0  0  0  0  0  0  0  0  0
  139.9474  129.6556  120.6077 H   0  0  0  0  0  0  0  0  0  0  0  0
  141.0172  130.6677  119.6067 H   0  0  0  0  0  0  0  0  0  0  0  0
  141.1326  128.8945  119.5621 H   0  0  0  0  0  0  0  0  0  0  0  0
  140.8199  129.1012  117.0820 H   0  0  0  0  0  0  0  0  0  0  0  0
  140.4023  130.8067  117.0296 H   0  0  0  0  0  0  0  0  0  0  0  0
  139.0895  129.0706  115.3950 H   0  0  0  0  0  0  0  0  0  0  0  0
  138.2079  130.3508  116.2075 H   0  0  0  0  0  0  0  0  0  0  0  0
  142.5728  124.4670  118.7782 H   0  0  0  0  0  0  0  0  0  0  0  0
  141.2261  125.4773  119.3489 H   0  0  0  0  0  0  0  0  0  0  0  0
  142.2530  126.0256  117.9982 H   0  0  0  0  0  0  0  0  0  0  0  0
  140.2374  122.6535  114.3569 H   0  0  0  0  0  0  0  0  0  0  0  0
  138.4982  122.7908  114.2099 H   0  0  0  0  0  0  0  0  0  0  0  0
  139.9682  120.4510  115.5300 H   0  0  0  0  0  0  0  0  0  0  0  0
  139.1174  119.1391  113.5716 H   0  0  0  0  0  0  0  0  0  0  0  0
  138.3764  120.6453  112.9003 H   0  0  0  0  0  0  0  0  0  0  0  0
  137.7119  119.3903  115.6785 H   0  0  0  0  0  0  0  0  0  0  0  0
  136.9581  120.8845  114.9955 H   0  0  0  0  0  0  0  0  0  0  0  0
  1  2  2  0
  2  3  1  0
  2 25  1  0
  3  4  2  0
  4  5  1  0
  4 26  1  0
  5  6  2  0
  5 27  1  0
  6 20  1  0
  6  1  1  0
  7  3  1  6
  7  8  1  0
  8  9  1  0
  8 28  1  0
  8 29  1  0
  9 10  1  0
  9 30  1  0
  9 31  1  0
 10 11  2  0
 10 12  1  0
 12 13  1  0
 12 32  1  0
 12 33  1  0
 13 14  1  0
 13  7  1  0
 13 34  1  1
 14 15  1  0
 14 16  1  0
 15 35  1  0
 15 36  1  0
 15 37  1  0
 16 17  1  0
 16 38  1  0
 16 39  1  0
 17  7  1  0
 17 40  1  0
 17 41  1  0
 18 19  1  0
 18 42  1  0
 18 43  1  0
 18 44  1  0
 19  1  1  0
 20 21  1  0
 21 22  1  0
 21 45  1  0
 21 46  1  0
 22 23  1  0
 22 47  1  0
 23 24  1  0
 23 48  1  0
 23 49  1  0
 24 22  1  0
 24 50  1  0
 24 51  1  0
M  END
>  <minimizedAffinity>  (4) 
-8.03607

>  <mol_id>  (4) 
67792

>  <source_index>  (4) 
3

>  <layer>  (4) 
L2

>  <uniprot>  (4) 
P31645

>  <paff>  (4) 
6.0457999999999998

>  <smiles>  (4) 
COc1cc([C@@]23CCC(=O)C[C@@H]2N(C)CC3)ccc1OCC1CC1

>  <aimnet_interaction_kcal_mol>  (4) 
-54.089647219566587

$$$$
L2:P31645:76063
     RDKit          3D

 47 49  0  0  0  0  0  0  0  0999 V2000
  139.4396  123.8755  116.8760 C   0  0  0  0  0  0  0  0  0  0  0  0
  140.1701  124.8213  117.5706 C   0  0  0  0  0  0  0  0  0  0  0  0
  139.6726  126.0960  117.7646 C   0  0  0  0  0  0  0  0  0  0  0  0
  138.4157  126.4758  117.2794 C   0  0  0  0  0  0  0  0  0  0  0  0
  137.6946  125.5189  116.5674 C   0  0  0  0  0  0  0  0  0  0  0  0
  138.1866  124.2299  116.3851 C   0  0  0  0  0  0  0  0  0  0  0  0
  137.9081  127.9019  117.4771 C   0  0  1  0  0  0  0  0  0  0  0  0
  136.4026  128.0578  117.2320 C   0  0  0  0  0  0  0  0  0  0  0  0
  135.8443  129.4048  117.6974 C   0  0  0  0  0  0  0  0  0  0  0  0
  136.2332  129.7672  119.1160 C   0  0  0  0  0  0  0  0  0  0  0  0
  135.9179  130.8301  119.6329 O   0  0  0  0  0  0  0  0  0  0  0  0
  137.0578  128.7228  119.7877 C   0  0  0  0  0  0  0  0  0  0  0  0
  138.2670  128.4098  118.9073 C   0  0  2  0  0  0  0  0  0  0  0  0
  139.0318  129.6394  118.7022 N   0  0  0  0  0  0  0  0  0  0  0  0
  139.8970  130.0036  119.8052 C   0  0  0  0  0  0  0  0  0  0  0  0
  139.7215  129.5216  117.4292 C   0  0  0  0  0  0  0  0  0  0  0  0
  138.7010  128.8466  116.5382 C   0  0  0  0  0  0  0  0  0  0  0  0
  140.7025  122.4025  115.5193 C   0  0  0  0  0  0  0  0  0  0  0  0
  139.9222  122.5819  116.7057 O   0  0  0  0  0  0  0  0  0  0  0  0
  137.4094  123.3061  115.6908 O   0  0  0  0  0  0  0  0  0  0  0  0
  137.2083  122.0645  116.3318 C   0  0  0  0  0  0  0  0  0  0  0  0
  137.5734  120.8959  115.4152 C   0  0  0  0  0  0  0  0  0  0  0  0
  136.4855  120.0706  115.2561 F   0  0  0  0  0  0  0  0  0  0  0  0
  137.9698  121.2575  114.1846 F   0  0  0  0  0  0  0  0  0  0  0  0
  138.5481  120.1003  115.9306 F   0  0  0  0  0  0  0  0  0  0  0  0
  141.1201  124.5414  118.0095 H   0  0  0  0  0  0  0  0  0  0  0  0
  140.2726  126.7697  118.3561 H   0  0  0  0  0  0  0  0  0  0  0  0
  136.7240  125.7522  116.1516 H   0  0  0  0  0  0  0  0  0  0  0  0
  135.8541  127.2677  117.7451 H   0  0  0  0  0  0  0  0  0  0  0  0
  136.1825  127.9373  116.1709 H   0  0  0  0  0  0  0  0  0  0  0  0
  134.7552  129.4108  117.6323 H   0  0  0  0  0  0  0  0  0  0  0  0
  136.2040  130.2139  117.0601 H   0  0  0  0  0  0  0  0  0  0  0  0
  136.4491  127.8255  119.9329 H   0  0  0  0  0  0  0  0  0  0  0  0
  137.4015  129.0447  120.7633 H   0  0  0  0  0  0  0  0  0  0  0  0
  138.8598  127.6746  119.4488 H   0  0  0  0  0  0  0  0  0  0  0  0
  139.3539  129.9595  120.7447 H   0  0  0  0  0  0  0  0  0  0  0  0
  140.2825  131.0128  119.6485 H   0  0  0  0  0  0  0  0  0  0  0  0
  140.7491  129.3182  119.9131 H   0  0  0  0  0  0  0  0  0  0  0  0
  140.6325  128.9067  117.5055 H   0  0  0  0  0  0  0  0  0  0  0  0
  140.0329  130.5032  117.0669 H   0  0  0  0  0  0  0  0  0  0  0  0
  139.1511  128.3089  115.7044 H   0  0  0  0  0  0  0  0  0  0  0  0
  138.0367  129.5969  116.1146 H   0  0  0  0  0  0  0  0  0  0  0  0
  140.7731  121.3349  115.3265 H   0  0  0  0  0  0  0  0  0  0  0  0
  141.7048  122.8090  115.6671 H   0  0  0  0  0  0  0  0  0  0  0  0
  140.2298  122.8925  114.6705 H   0  0  0  0  0  0  0  0  0  0  0  0
  136.1564  121.9839  116.5998 H   0  0  0  0  0  0  0  0  0  0  0  0
  137.7878  121.9820  117.2458 H   0  0  0  0  0  0  0  0  0  0  0  0
  1  2  2  0
  2  3  1  0
  2 26  1  0
  3  4  2  0
  3 27  1  0
  4  5  1  0
  5  6  2  0
  5 28  1  0
  6 20  1  0
  6  1  1  0
  7  4  1  1
  7  8  1  0
  8  9  1  0
  8 29  1  0
  8 30  1  0
  9 10  1  0
  9 31  1  0
  9 32  1  0
 10 11  2  0
 10 12  1  0
 12 13  1  0
 12 33  1  0
 12 34  1  0
 13 14  1  0
 13  7  1  0
 13 35  1  1
 14 15  1  0
 14 16  1  0
 15 36  1  0
 15 37  1  0
 15 38  1  0
 16 17  1  0
 16 39  1  0
 16 40  1  0
 17  7  1  0
 17 41  1  0
 17 42  1  0
 18 19  1  0
 18 43  1  0
 18 44  1  0
 18 45  1  0
 19  1  1  0
 20 21  1  0
 21 22  1  0
 21 46  1  0
 21 47  1  0
 22 23  1  0
 22 24  1  0
 22 25  1  0
M  END
>  <minimizedAffinity>  (5) 
-7.97834

>  <mol_id>  (5) 
76063

>  <source_index>  (5) 
4

>  <layer>  (5) 
L2

>  <uniprot>  (5) 
P31645

>  <paff>  (5) 
7

>  <smiles>  (5) 
COc1ccc([C@@]23CCC(=O)C[C@@H]2N(C)CC3)cc1OCC(F)(F)F

>  <aimnet_interaction_kcal_mol>  (5) 
-50.373488248829716

$$$$
L2:P31645:78423
     RDKit          3D

 60 63  0  0  0  0  0  0  0  0999 V2000
  134.2388  131.2131  119.6394 C   0  0  0  0  0  0  0  0  0  0  0  0
  135.0929  130.3951  118.9203 C   0  0  0  0  0  0  0  0  0  0  0  0
  136.0453  130.9141  118.0371 C   0  0  0  0  0  0  0  0  0  0  0  0
  135.8922  132.2497  117.6619 C   0  0  0  0  0  0  0  0  0  0  0  0
  134.9717  133.0744  118.3007 C   0  0  0  0  0  0  0  0  0  0  0  0
  134.1598  132.5787  119.3109 C   0  0  0  0  0  0  0  0  0  0  0  0
  137.2029  130.0391  117.5999 C   0  0  1  0  0  0  0  0  0  0  0  0
  138.3568  130.8336  116.9873 C   0  0  0  0  0  0  0  0  0  0  0  0
  138.9846  131.8376  117.9591 C   0  0  0  0  0  0  0  0  0  0  0  0
  138.9279  131.3122  119.3788 C   0  0  0  0  0  0  0  0  0  0  0  0
  138.7546  132.0372  120.3495 O   0  0  0  0  0  0  0  0  0  0  0  0
  139.0406  129.8277  119.4510 C   0  0  0  0  0  0  0  0  0  0  0  0
  137.7556  129.2281  118.8581 C   0  0  2  0  0  0  0  0  0  0  0  0
  137.8231  127.8246  118.4723 N   0  0  0  0  0  0  0  0  0  0  0  0
  139.0985  127.3081  118.0263 C   0  0  0  0  0  0  0  0  0  0  0  0
  136.7366  127.6526  117.5150 C   0  0  0  0  0  0  0  0  0  0  0  0
  136.7273  128.9162  116.6444 C   0  0  0  0  0  0  0  0  0  0  0  0
  133.5541  130.8327  120.7522 O   0  0  0  0  0  0  0  0  0  0  0  0
  133.1617  129.4662  120.9271 C   0  0  0  0  0  0  0  0  0  0  0  0
  131.6964  129.3004  120.6197 C   0  0  0  0  0  0  0  0  0  0  0  0
  129.8077  129.4854  118.9793 C   0  0  0  0  0  0  0  0  0  0  0  0
  131.3171  129.4787  119.1656 C   0  0  0  0  0  0  0  0  0  0  0  0
  133.3935  133.4358  120.0694 O   0  0  0  0  0  0  0  0  0  0  0  0
  131.9593  133.2509  120.0431 C   0  0  0  0  0  0  0  0  0  0  0  0
  131.3912  133.7460  121.3301 C   0  0  0  0  0  0  0  0  0  0  0  0
  130.0713  133.2736  121.8178 C   0  0  0  0  0  0  0  0  0  0  0  0
  131.3049  132.8718  122.5415 C   0  0  0  0  0  0  0  0  0  0  0  0
  135.0298  129.3311  119.0706 H   0  0  0  0  0  0  0  0  0  0  0  0
  136.4807  132.6646  116.8565 H   0  0  0  0  0  0  0  0  0  0  0  0
  134.9056  134.1250  118.0646 H   0  0  0  0  0  0  0  0  0  0  0  0
  138.0421  131.3266  116.0670 H   0  0  0  0  0  0  0  0  0  0  0  0
  139.1227  130.1214  116.6747 H   0  0  0  0  0  0  0  0  0  0  0  0
  138.4961  132.8059  117.9339 H   0  0  0  0  0  0  0  0  0  0  0  0
  140.0335  132.0054  117.7012 H   0  0  0  0  0  0  0  0  0  0  0  0
  139.1930  129.4465  120.4609 H   0  0  0  0  0  0  0  0  0  0  0  0
  139.9018  129.5318  118.8522 H   0  0  0  0  0  0  0  0  0  0  0  0
  137.0177  129.2848  119.6544 H   0  0  0  0  0  0  0  0  0  0  0  0
  139.8059  127.3106  118.8478 H   0  0  0  0  0  0  0  0  0  0  0  0
  139.5334  127.8363  117.1628 H   0  0  0  0  0  0  0  0  0  0  0  0
  138.9591  126.2689  117.7401 H   0  0  0  0  0  0  0  0  0  0  0  0
  135.7873  127.5417  118.0421 H   0  0  0  0  0  0  0  0  0  0  0  0
  136.8745  126.7433  116.9326 H   0  0  0  0  0  0  0  0  0  0  0  0
  135.7478  129.1101  116.2061 H   0  0  0  0  0  0  0  0  0  0  0  0
  137.4315  128.7942  115.8200 H   0  0  0  0  0  0  0  0  0  0  0  0
  133.7436  128.7813  120.3149 H   0  0  0  0  0  0  0  0  0  0  0  0
  133.3804  129.2481  121.9697 H   0  0  0  0  0  0  0  0  0  0  0  0
  131.4298  128.2985  120.9332 H   0  0  0  0  0  0  0  0  0  0  0  0
  131.1125  129.9884  121.2389 H   0  0  0  0  0  0  0  0  0  0  0  0
  129.5267  129.2652  117.9548 H   0  0  0  0  0  0  0  0  0  0  0  0
  129.3766  130.4497  119.2437 H   0  0  0  0  0  0  0  0  0  0  0  0
  129.3286  128.7417  119.6177 H   0  0  0  0  0  0  0  0  0  0  0  0
  131.7403  130.3998  118.7739 H   0  0  0  0  0  0  0  0  0  0  0  0
  131.7882  128.6978  118.5730 H   0  0  0  0  0  0  0  0  0  0  0  0
  131.7256  132.2063  119.8671 H   0  0  0  0  0  0  0  0  0  0  0  0
  131.5642  133.8277  119.2068 H   0  0  0  0  0  0  0  0  0  0  0  0
  131.6348  134.7866  121.5000 H   0  0  0  0  0  0  0  0  0  0  0  0
  129.5520  132.5331  121.2298 H   0  0  0  0  0  0  0  0  0  0  0  0
  129.3790  133.9722  122.2655 H   0  0  0  0  0  0  0  0  0  0  0  0
  131.6364  131.8527  122.4293 H   0  0  0  0  0  0  0  0  0  0  0  0
  131.4962  133.2900  123.5216 H   0  0  0  0  0  0  0  0  0  0  0  0
  1  2  2  0
  2  3  1  0
  2 28  1  0
  3  4  2  0
  4  5  1  0
  4 29  1  0
  5  6  2  0
  5 30  1  0
  6 23  1  0
  6  1  1  0
  7  3  1  1
  7  8  1  0
  8  9  1  0
  8 31  1  0
  8 32  1  0
  9 10  1  0
  9 33  1  0
  9 34  1  0
 10 11  2  0
 10 12  1  0
 12 13  1  0
 12 35  1  0
 12 36  1  0
 13 14  1  0
 13  7  1  0
 13 37  1  1
 14 15  1  0
 14 16  1  0
 15 38  1  0
 15 39  1  0
 15 40  1  0
 16 17  1  0
 16 41  1  0
 16 42  1  0
 17  7  1  0
 17 43  1  0
 17 44  1  0
 18  1  1  0
 19 18  1  0
 19 45  1  0
 19 46  1  0
 20 19  1  0
 20 47  1  0
 20 48  1  0
 21 22  1  0
 21 49  1  0
 21 50  1  0
 21 51  1  0
 22 20  1  0
 22 52  1  0
 22 53  1  0
 23 24  1  0
 24 25  1  0
 24 54  1  0
 24 55  1  0
 25 26  1  0
 25 56  1  0
 26 27  1  0
 26 57  1  0
 26 58  1  0
 27 25  1  0
 27 59  1  0
 27 60  1  0
M  END
>  <minimizedAffinity>  (6) 
-7.48672

>  <mol_id>  (6) 
78423

>  <source_index>  (6) 
5

>  <layer>  (6) 
L2

>  <uniprot>  (6) 
P31645

>  <paff>  (6) 
6.0968999999999998

>  <smiles>  (6) 
CCCCOc1cc([C@@]23CCC(=O)C[C@@H]2N(C)CC3)ccc1OCC1CC1

>  <aimnet_interaction_kcal_mol>  (6) 
-66.61046760687411

$$$$
L2:P31645:96347
     RDKit          3D

 60 63  0  0  0  0  0  0  0  0999 V2000
  137.8257  127.0136  116.9187 C   0  0  2  0  0  0  0  0  0  0  0  0
  136.3132  126.8179  116.8061 C   0  0  0  0  0  0  0  0  0  0  0  0
  135.4765  128.0336  117.1579 C   0  0  0  0  0  0  0  0  0  0  0  0
  135.7967  128.5843  118.5386 C   0  0  1  0  0  0  0  0  0  0  0  0
  137.2849  128.8801  118.6326 C   0  0  0  0  0  0  0  0  0  0  0  0
  138.1852  127.7006  118.2583 C   0  0  2  0  0  0  0  0  0  0  0  0
  139.5496  128.1190  118.0011 N   0  0  0  0  0  0  0  0  0  0  0  0
  140.2387  128.8842  119.0008 C   0  0  0  0  0  0  0  0  0  0  0  0
  139.6473  128.5941  116.6289 C   0  0  0  0  0  0  0  0  0  0  0  0
  138.4193  128.0215  115.9131 C   0  0  0  0  0  0  0  0  0  0  0  0
  134.8846  129.7816  118.8529 C   0  0  2  0  0  0  0  0  0  0  0  0
  135.3456  131.1027  118.2470 C   0  0  0  0  0  0  0  0  0  0  0  0
  134.3297  132.2343  118.4393 C   0  0  0  0  0  0  0  0  0  0  0  0
  133.1814  131.8617  119.3814 C   0  0  0  0  0  0  0  0  0  0  0  0
  133.6600  131.1285  120.6043 C   0  0  0  0  0  0  0  0  0  0  0  0
  133.2791  131.4356  121.7219 O   0  0  0  0  0  0  0  0  0  0  0  0
  134.6180  129.9905  120.3385 C   0  0  0  0  0  0  0  0  0  0  0  0
  139.6975  123.1640  116.2070 C   0  0  0  0  0  0  0  0  0  0  0  0
  138.7708  123.6909  115.3190 C   0  0  0  0  0  0  0  0  0  0  0  0
  138.1907  124.9266  115.5627 C   0  0  0  0  0  0  0  0  0  0  0  0
  138.5197  125.6755  116.6895 C   0  0  0  0  0  0  0  0  0  0  0  0
  139.4842  125.1595  117.5505 C   0  0  0  0  0  0  0  0  0  0  0  0
  140.1000  123.9371  117.3081 C   0  0  0  0  0  0  0  0  0  0  0  0
  139.5684  121.0131  115.2387 C   0  0  0  0  0  0  0  0  0  0  0  0
  140.2533  121.9119  116.0853 O   0  0  0  0  0  0  0  0  0  0  0  0
  141.0917  123.4039  118.0834 O   0  0  0  0  0  0  0  0  0  0  0  0
  141.5918  124.1983  119.1581 C   0  0  0  0  0  0  0  0  0  0  0  0
  136.0116  125.9963  117.4637 H   0  0  0  0  0  0  0  0  0  0  0  0
  136.0590  126.5050  115.7948 H   0  0  0  0  0  0  0  0  0  0  0  0
  134.4298  127.7407  117.1247 H   0  0  0  0  0  0  0  0  0  0  0  0
  135.6099  128.8175  116.4096 H   0  0  0  0  0  0  0  0  0  0  0  0
  135.5595  127.7901  119.2527 H   0  0  0  0  0  0  0  0  0  0  0  0
  137.5548  129.2058  119.6381 H   0  0  0  0  0  0  0  0  0  0  0  0
  137.5379  129.7115  117.9729 H   0  0  0  0  0  0  0  0  0  0  0  0
  138.1539  126.9862  119.0802 H   0  0  0  0  0  0  0  0  0  0  0  0
  140.1521  128.4174  119.9788 H   0  0  0  0  0  0  0  0  0  0  0  0
  139.8678  129.9157  119.0891 H   0  0  0  0  0  0  0  0  0  0  0  0
  141.2960  128.9352  118.7391 H   0  0  0  0  0  0  0  0  0  0  0  0
  140.5750  128.2361  116.1765 H   0  0  0  0  0  0  0  0  0  0  0  0
  139.6736  129.6910  116.5751 H   0  0  0  0  0  0  0  0  0  0  0  0
  138.6641  127.5429  114.9703 H   0  0  0  0  0  0  0  0  0  0  0  0
  137.6904  128.8008  115.6952 H   0  0  0  0  0  0  0  0  0  0  0  0
  133.9212  129.5280  118.4079 H   0  0  0  0  0  0  0  0  0  0  0  0
  135.5594  130.9702  117.1876 H   0  0  0  0  0  0  0  0  0  0  0  0
  136.2932  131.3851  118.7094 H   0  0  0  0  0  0  0  0  0  0  0  0
  133.9158  132.5394  117.4825 H   0  0  0  0  0  0  0  0  0  0  0  0
  134.8397  133.1158  118.8230 H   0  0  0  0  0  0  0  0  0  0  0  0
  132.4979  131.1745  118.8755 H   0  0  0  0  0  0  0  0  0  0  0  0
  132.5887  132.7222  119.6809 H   0  0  0  0  0  0  0  0  0  0  0  0
  134.2038  129.0931  120.7970 H   0  0  0  0  0  0  0  0  0  0  0  0
  135.5549  130.1804  120.8649 H   0  0  0  0  0  0  0  0  0  0  0  0
  138.5206  123.1500  114.4167 H   0  0  0  0  0  0  0  0  0  0  0  0
  137.4792  125.3125  114.8472 H   0  0  0  0  0  0  0  0  0  0  0  0
  139.7437  125.7174  118.4352 H   0  0  0  0  0  0  0  0  0  0  0  0
  140.0430  120.0426  115.3678 H   0  0  0  0  0  0  0  0  0  0  0  0
  139.6423  121.3056  114.1925 H   0  0  0  0  0  0  0  0  0  0  0  0
  138.5137  120.9330  115.5205 H   0  0  0  0  0  0  0  0  0  0  0  0
  142.3947  123.6220  119.6166 H   0  0  0  0  0  0  0  0  0  0  0  0
  140.8296  124.3983  119.9051 H   0  0  0  0  0  0  0  0  0  0  0  0
  141.9814  125.1517  118.7997 H   0  0  0  0  0  0  0  0  0  0  0  0
  1 21  1  1
  1  2  1  0
  2  3  1  0
  2 28  1  0
  2 29  1  0
  3  4  1  0
  3 30  1  0
  3 31  1  0
  4 11  1  0
  4  5  1  0
  4 32  1  1
  5  6  1  0
  5 33  1  0
  5 34  1  0
  6  7  1  0
  6  1  1  0
  6 35  1  1
  7  8  1  0
  7  9  1  0
  8 36  1  0
  8 37  1  0
  8 38  1  0
  9 10  1  0
  9 39  1  0
  9 40  1  0
 10  1  1  0
 10 41  1  0
 10 42  1  0
 11 12  1  0
 11 43  1  6
 12 13  1  0
 12 44  1  0
 12 45  1  0
 13 14  1  0
 13 46  1  0
 13 47  1  0
 14 15  1  0
 14 48  1  0
 14 49  1  0
 15 16  2  0
 15 17  1  0
 17 11  1  0
 17 50  1  0
 17 51  1  0
 18 19  2  0
 19 20  1  0
 19 52  1  0
 20 21  2  0
 20 53  1  0
 21 22  1  0
 22 23  2  0
 22 54  1  0
 23 26  1  0
 23 18  1  0
 24 25  1  0
 24 55  1  0
 24 56  1  0
 24 57  1  0
 25 18  1  0
 26 27  1  0
 27 58  1  0
 27 59  1  0
 27 60  1  0
M  END
>  <minimizedAffinity>  (7) 
-9.22423

>  <mol_id>  (7) 
96347

>  <source_index>  (7) 
6

>  <layer>  (7) 
L2

>  <uniprot>  (7) 
P31645

>  <paff>  (7) 
7.3010000000000002

>  <smiles>  (7) 
COc1ccc([C@@]23CC[C@H](C4CCCC(=O)C4)C[C@@H]2N(C)CC3)cc1OC

>  <aimnet_interaction_kcal_mol>  (7) 
-59.150702584826718

$$$$
L2:P31645:103500
     RDKit          3D

 55 59  0  0  0  0  0  0  0  0999 V2000
  136.1259  129.6259  118.7538 N   0  0  0  0  0  0  0  0  0  0  0  0
  137.5574  129.5664  118.4835 C   0  0  0  0  0  0  0  0  0  0  0  0
  138.0806  128.1635  118.7252 C   0  0  0  0  0  0  0  0  0  0  0  0
  137.3454  127.1499  117.9792 N   0  0  0  0  0  0  0  0  0  0  0  0
  135.9386  127.2183  118.3427 C   0  0  0  0  0  0  0  0  0  0  0  0
  135.3450  128.5810  118.0811 C   0  0  0  0  0  0  0  0  0  0  0  0
  132.4065  131.4324  120.8614 C   0  0  0  0  0  0  0  0  0  0  0  0
  132.4356  132.4136  119.9355 C   0  0  0  0  0  0  0  0  0  0  0  0
  133.5726  132.3062  119.0576 C   0  0  0  0  0  0  0  0  0  0  0  0
  134.0645  133.2654  118.1717 C   0  0  0  0  0  0  0  0  0  0  0  0
  135.3356  133.1061  117.6629 C   0  0  0  0  0  0  0  0  0  0  0  0
  136.0791  131.9513  117.9271 C   0  0  0  0  0  0  0  0  0  0  0  0
  135.5421  130.8951  118.6608 C   0  0  0  0  0  0  0  0  0  0  0  0
  134.3086  131.1357  119.2920 C   0  0  0  0  0  0  0  0  0  0  0  0
  133.5997  130.1783  120.5807 S   0  0  0  0  0  0  0  0  0  0  0  0
  130.3965  130.9352  122.0778 N   0  0  0  0  0  0  0  0  0  0  0  0
  131.6195  131.4776  122.1371 C   0  0  0  0  0  0  0  0  0  0  0  0
  132.0919  132.0062  123.1394 O   0  0  0  0  0  0  0  0  0  0  0  0
  129.9957  130.6665  121.1965 H   0  0  0  0  0  0  0  0  0  0  0  0
  129.7724  131.0330  122.8642 H   0  0  0  0  0  0  0  0  0  0  0  0
  137.6012  127.2008  116.5493 C   0  0  0  0  0  0  0  0  0  0  0  0
  137.1082  125.9714  115.8018 C   0  0  0  0  0  0  0  0  0  0  0  0
  137.9302  124.7391  115.9700 C   0  0  0  0  0  0  0  0  0  0  0  0
  139.3031  124.7799  115.6845 C   0  0  0  0  0  0  0  0  0  0  0  0
  140.0024  123.6303  115.4395 C   0  0  0  0  0  0  0  0  0  0  0  0
  139.3462  122.3926  115.4519 C   0  0  0  0  0  0  0  0  0  0  0  0
  139.9079  121.2005  114.9244 C   0  0  0  0  0  0  0  0  0  0  0  0
  139.2413  120.0189  114.9997 C   0  0  0  0  0  0  0  0  0  0  0  0
  137.9594  119.9020  115.6442 C   0  0  0  0  0  0  0  0  0  0  0  0
  137.3397  118.8382  115.8116 O   0  0  0  0  0  0  0  0  0  0  0  0
  137.4334  121.1048  116.0907 N   0  0  0  0  0  0  0  0  0  0  0  0
  138.0279  122.3413  115.9486 C   0  0  0  0  0  0  0  0  0  0  0  0
  137.3418  123.5171  116.2424 C   0  0  0  0  0  0  0  0  0  0  0  0
  136.5697  121.0495  116.6128 H   0  0  0  0  0  0  0  0  0  0  0  0
  138.0728  130.2518  119.1573 H   0  0  0  0  0  0  0  0  0  0  0  0
  137.7967  129.8751  117.4582 H   0  0  0  0  0  0  0  0  0  0  0  0
  138.0325  127.9382  119.7902 H   0  0  0  0  0  0  0  0  0  0  0  0
  139.1357  128.1015  118.4667 H   0  0  0  0  0  0  0  0  0  0  0  0
  135.8322  127.0099  119.4068 H   0  0  0  0  0  0  0  0  0  0  0  0
  135.3623  126.4562  117.8281 H   0  0  0  0  0  0  0  0  0  0  0  0
  134.3225  128.6078  118.4393 H   0  0  0  0  0  0  0  0  0  0  0  0
  135.3037  128.7642  117.0022 H   0  0  0  0  0  0  0  0  0  0  0  0
  131.6716  133.1782  119.8433 H   0  0  0  0  0  0  0  0  0  0  0  0
  133.4588  134.1288  117.9470 H   0  0  0  0  0  0  0  0  0  0  0  0
  135.7913  133.8789  117.0626 H   0  0  0  0  0  0  0  0  0  0  0  0
  137.0753  131.8650  117.5215 H   0  0  0  0  0  0  0  0  0  0  0  0
  138.6732  127.3098  116.3924 H   0  0  0  0  0  0  0  0  0  0  0  0
  137.1480  128.0843  116.0840 H   0  0  0  0  0  0  0  0  0  0  0  0
  137.0975  126.2009  114.7376 H   0  0  0  0  0  0  0  0  0  0  0  0
  136.0762  125.7725  116.0737 H   0  0  0  0  0  0  0  0  0  0  0  0
  139.8059  125.7323  115.6169 H   0  0  0  0  0  0  0  0  0  0  0  0
  141.0547  123.6723  115.1975 H   0  0  0  0  0  0  0  0  0  0  0  0
  140.8563  121.2565  114.4130 H   0  0  0  0  0  0  0  0  0  0  0  0
  139.6418  119.1162  114.5637 H   0  0  0  0  0  0  0  0  0  0  0  0
  136.3671  123.4623  116.7080 H   0  0  0  0  0  0  0  0  0  0  0  0
  1  2  1  0
  2  3  1  0
  2 35  1  0
  2 36  1  0
  3  4  1  0
  3 37  1  0
  3 38  1  0
  4 21  1  0
  4  5  1  0
  5  6  1  0
  5 39  1  0
  5 40  1  0
  6  1  1  0
  6 41  1  0
  6 42  1  0
  7  8  2  0
  8  9  1  0
  8 43  1  0
  9 10  2  0
 10 11  1  0
 10 44  1  0
 11 12  2  0
 11 45  1  0
 12 13  1  0
 12 46  1  0
 13  1  1  0
 13 14  2  0
 14 15  1  0
 14  9  1  0
 15  7  1  0
 16 17  1  0
 16 19  1  0
 16 20  1  0
 17 18  2  0
 17  7  1  0
 21 22  1  0
 21 47  1  0
 21 48  1  0
 22 23  1  0
 22 49  1  0
 22 50  1  0
 23 24  2  0
 24 25  1  0
 24 51  1  0
 25 26  2  0
 25 52  1  0
 26 27  1  0
 27 28  2  0
 27 53  1  0
 28 29  1  0
 28 54  1  0
 29 30  2  0
 29 31  1  0
 31 32  1  0
 31 34  1  0
 32 33  2  0
 32 26  1  0
 33 23  1  0
 33 55  1  0
M  END
>  <minimizedAffinity>  (8) 
-10.62083

>  <mol_id>  (8) 
103500

>  <source_index>  (8) 
7

>  <layer>  (8) 
L2

>  <uniprot>  (8) 
P31645

>  <paff>  (8) 
7.3188000000000004

>  <smiles>  (8) 
NC(=O)c1cc2cccc(N3CCN(CCc4ccc5ccc(=O)[nH]c5c4)CC3)c2s1

>  <aimnet_interaction_kcal_mol>  (8) 
-80.959303110015085

$$$$
L2:P31645:103879
     RDKit          3D

 54 57  0  0  0  0  0  0  0  0999 V2000
  135.6871  129.7303  119.6106 C   0  0  0  0  0  0  0  0  0  0  0  0
  135.1479  129.5537  120.8746 C   0  0  0  0  0  0  0  0  0  0  0  0
  133.9988  130.2204  121.2584 C   0  0  0  0  0  0  0  0  0  0  0  0
  133.3507  131.0851  120.3760 C   0  0  0  0  0  0  0  0  0  0  0  0
  134.0144  131.4081  119.1917 C   0  0  0  0  0  0  0  0  0  0  0  0
  135.2047  130.7857  118.8153 C   0  0  0  0  0  0  0  0  0  0  0  0
  131.9103  131.5221  120.6015 C   0  0  1  0  0  0  0  0  0  0  0  0
  131.0082  130.4125  120.0312 C   0  0  0  0  0  0  0  0  0  0  0  0
  129.5119  130.5748  120.3047 C   0  0  0  0  0  0  0  0  0  0  0  0
  129.2906  130.7518  121.7803 C   0  0  0  0  0  0  0  0  0  0  0  0
  128.6060  130.0113  122.4580 O   0  0  0  0  0  0  0  0  0  0  0  0
  130.0695  131.8976  122.3662 C   0  0  0  0  0  0  0  0  0  0  0  0
  131.5767  131.7665  122.0881 C   0  0  2  0  0  0  0  0  0  0  0  0
  132.3217  133.0090  122.3566 N   0  0  0  0  0  0  0  0  0  0  0  0
  131.9773  133.5776  123.6360 C   0  0  0  0  0  0  0  0  0  0  0  0
  132.0134  133.8820  121.2074 C   0  0  0  0  0  0  0  0  0  0  0  0
  131.6653  132.9406  120.0534 C   0  0  0  0  0  0  0  0  0  0  0  0
  136.5040  127.5176  119.3147 C   0  0  0  0  0  0  0  0  0  0  0  0
  136.6527  128.9193  119.0999 O   0  0  0  0  0  0  0  0  0  0  0  0
  135.8052  131.1972  117.6665 O   0  0  0  0  0  0  0  0  0  0  0  0
  137.2405  131.0143  117.4908 C   0  0  0  0  0  0  0  0  0  0  0  0
  137.5730  130.0214  116.3795 C   0  0  0  0  0  0  0  0  0  0  0  0
  138.8474  130.5699  115.7123 C   0  0  0  0  0  0  0  0  0  0  0  0
  139.2215  131.8394  116.4857 C   0  0  0  0  0  0  0  0  0  0  0  0
  137.9064  132.3153  117.0780 C   0  0  0  0  0  0  0  0  0  0  0  0
  135.6417  128.8823  121.5586 H   0  0  0  0  0  0  0  0  0  0  0  0
  133.6291  130.0356  122.2559 H   0  0  0  0  0  0  0  0  0  0  0  0
  133.5979  132.1260  118.4994 H   0  0  0  0  0  0  0  0  0  0  0  0
  131.3234  129.4611  120.4699 H   0  0  0  0  0  0  0  0  0  0  0  0
  131.1864  130.3137  118.9624 H   0  0  0  0  0  0  0  0  0  0  0  0
  128.9618  129.7049  119.9642 H   0  0  0  0  0  0  0  0  0  0  0  0
  129.1202  131.4492  119.7852 H   0  0  0  0  0  0  0  0  0  0  0  0
  129.8874  131.9442  123.4369 H   0  0  0  0  0  0  0  0  0  0  0  0
  129.6758  132.8182  121.9296 H   0  0  0  0  0  0  0  0  0  0  0  0
  131.9576  130.9723  122.7284 H   0  0  0  0  0  0  0  0  0  0  0  0
  132.0402  132.8173  124.4155 H   0  0  0  0  0  0  0  0  0  0  0  0
  130.9587  133.9574  123.6288 H   0  0  0  0  0  0  0  0  0  0  0  0
  132.6396  134.3950  123.9130 H   0  0  0  0  0  0  0  0  0  0  0  0
  132.8701  134.5145  120.9845 H   0  0  0  0  0  0  0  0  0  0  0  0
  131.1499  134.5233  121.4016 H   0  0  0  0  0  0  0  0  0  0  0  0
  132.2451  133.1822  119.1736 H   0  0  0  0  0  0  0  0  0  0  0  0
  130.6230  133.0638  119.7725 H   0  0  0  0  0  0  0  0  0  0  0  0
  137.4878  127.0717  119.2193 H   0  0  0  0  0  0  0  0  0  0  0  0
  135.8122  127.1044  118.5790 H   0  0  0  0  0  0  0  0  0  0  0  0
  136.1176  127.3027  120.3031 H   0  0  0  0  0  0  0  0  0  0  0  0
  137.6737  130.6778  118.4256 H   0  0  0  0  0  0  0  0  0  0  0  0
  136.7410  129.9758  115.6796 H   0  0  0  0  0  0  0  0  0  0  0  0
  137.7028  129.0197  116.7750 H   0  0  0  0  0  0  0  0  0  0  0  0
  138.6591  130.8101  114.6660 H   0  0  0  0  0  0  0  0  0  0  0  0
  139.6632  129.8501  115.7152 H   0  0  0  0  0  0  0  0  0  0  0  0
  139.7327  132.5627  115.8611 H   0  0  0  0  0  0  0  0  0  0  0  0
  139.9150  131.5949  117.2923 H   0  0  0  0  0  0  0  0  0  0  0  0
  137.2950  132.8131  116.3281 H   0  0  0  0  0  0  0  0  0  0  0  0
  138.0164  133.0005  117.9168 H   0  0  0  0  0  0  0  0  0  0  0  0
  1  2  2  0
  2  3  1  0
  2 26  1  0
  3  4  2  0
  3 27  1  0
  4  5  1  0
  5  6  2  0
  5 28  1  0
  6 20  1  0
  6  1  1  0
  7  4  1  1
  7  8  1  0
  8  9  1  0
  8 29  1  0
  8 30  1  0
  9 10  1  0
  9 31  1  0
  9 32  1  0
 10 11  2  0
 10 12  1  0
 12 13  1  0
 12 33  1  0
 12 34  1  0
 13 14  1  0
 13  7  1  0
 13 35  1  1
 14 15  1  0
 14 16  1  0
 15 36  1  0
 15 37  1  0
 15 38  1  0
 16 17  1  0
 16 39  1  0
 16 40  1  0
 17  7  1  0
 17 41  1  0
 17 42  1  0
 18 19  1  0
 18 43  1  0
 18 44  1  0
 18 45  1  0
 19  1  1  0
 20 21  1  0
 21 22  1  0
 21 46  1  0
 22 23  1  0
 22 47  1  0
 22 48  1  0
 23 24  1  0
 23 49  1  0
 23 50  1  0
 24 25  1  0
 24 51  1  0
 24 52  1  0
 25 21  1  0
 25 53  1  0
 25 54  1  0
M  END
>  <minimizedAffinity>  (9) 
-8.05964

>  <mol_id>  (9) 
103879

>  <source_index>  (9) 
8

>  <layer>  (9) 
L2

>  <uniprot>  (9) 
P31645

>  <paff>  (9) 
6.0968999999999998

>  <smiles>  (9) 
COc1ccc([C@@]23CCC(=O)C[C@@H]2N(C)CC3)cc1OC1CCCC1

>  <aimnet_interaction_kcal_mol>  (9) 
-60.814759349772984

$$$$
L2:P31645:122886
     RDKit          3D

 44 46  0  0  0  0  0  0  0  0999 V2000
  131.3664  130.8280  120.4036 C   0  0  2  0  0  0  0  0  0  0  0  0
  131.4809  130.1252  121.7615 C   0  0  0  0  0  0  0  0  0  0  0  0
  131.8246  131.0892  122.8879 C   0  0  0  0  0  0  0  0  0  0  0  0
  130.6735  132.0614  123.0219 C   0  0  0  0  0  0  0  0  0  0  0  0
  130.0655  132.2194  124.0670 O   0  0  0  0  0  0  0  0  0  0  0  0
  130.3098  132.7651  121.7461 C   0  0  0  0  0  0  0  0  0  0  0  0
  130.2021  131.8449  120.5212 C   0  0  2  0  0  0  0  0  0  0  0  0
  128.9930  131.0389  120.4234 N   0  0  0  0  0  0  0  0  0  0  0  0
  128.0129  130.9756  121.4725 C   0  0  0  0  0  0  0  0  0  0  0  0
  129.2942  129.7825  119.7507 C   0  0  0  0  0  0  0  0  0  0  0  0
  130.7729  129.8484  119.3906 C   0  0  0  0  0  0  0  0  0  0  0  0
  135.1685  132.1694  118.8399 C   0  0  0  0  0  0  0  0  0  0  0  0
  134.0718  133.0156  118.8007 C   0  0  0  0  0  0  0  0  0  0  0  0
  132.8636  132.6395  119.3780 C   0  0  0  0  0  0  0  0  0  0  0  0
  132.6976  131.3747  119.9399 C   0  0  0  0  0  0  0  0  0  0  0  0
  133.8253  130.5456  120.0044 C   0  0  0  0  0  0  0  0  0  0  0  0
  135.0602  130.9310  119.5001 C   0  0  0  0  0  0  0  0  0  0  0  0
  136.4301  133.4339  117.2731 C   0  0  0  0  0  0  0  0  0  0  0  0
  136.3993  132.4719  118.3266 O   0  0  0  0  0  0  0  0  0  0  0  0
  136.2107  130.2303  119.6066 O   0  0  0  0  0  0  0  0  0  0  0  0
  136.2188  129.0190  120.3644 C   0  0  0  0  0  0  0  0  0  0  0  0
  132.1900  129.2988  121.7203 H   0  0  0  0  0  0  0  0  0  0  0  0
  130.5087  129.6916  121.9792 H   0  0  0  0  0  0  0  0  0  0  0  0
  132.7293  131.6430  122.6183 H   0  0  0  0  0  0  0  0  0  0  0  0
  131.9967  130.5772  123.8323 H   0  0  0  0  0  0  0  0  0  0  0  0
  131.1003  133.5009  121.5590 H   0  0  0  0  0  0  0  0  0  0  0  0
  129.3788  133.3140  121.8419 H   0  0  0  0  0  0  0  0  0  0  0  0
  130.2161  132.5189  119.6609 H   0  0  0  0  0  0  0  0  0  0  0  0
  127.7346  131.9687  121.8058 H   0  0  0  0  0  0  0  0  0  0  0  0
  128.3287  130.3956  122.3531 H   0  0  0  0  0  0  0  0  0  0  0  0
  127.1114  130.5066  121.0755 H   0  0  0  0  0  0  0  0  0  0  0  0
  128.6608  129.6465  118.8682 H   0  0  0  0  0  0  0  0  0  0  0  0
  129.0968  128.9250  120.4037 H   0  0  0  0  0  0  0  0  0  0  0  0
  130.8954  130.2371  118.3901 H   0  0  0  0  0  0  0  0  0  0  0  0
  131.2814  128.8887  119.4081 H   0  0  0  0  0  0  0  0  0  0  0  0
  134.1538  133.9821  118.3236 H   0  0  0  0  0  0  0  0  0  0  0  0
  132.0430  133.3416  119.3284 H   0  0  0  0  0  0  0  0  0  0  0  0
  133.7328  129.5520  120.4137 H   0  0  0  0  0  0  0  0  0  0  0  0
  137.3962  133.3422  116.7817 H   0  0  0  0  0  0  0  0  0  0  0  0
  136.3036  134.4381  117.6730 H   0  0  0  0  0  0  0  0  0  0  0  0
  135.6381  133.2275  116.5572 H   0  0  0  0  0  0  0  0  0  0  0  0
  137.2434  128.6576  120.3624 H   0  0  0  0  0  0  0  0  0  0  0  0
  135.5700  128.2601  119.9214 H   0  0  0  0  0  0  0  0  0  0  0  0
  135.9212  129.2111  121.3959 H   0  0  0  0  0  0  0  0  0  0  0  0
  1 15  1  6
  1  2  1  0
  2  3  1  0
  2 22  1  0
  2 23  1  0
  3  4  1  0
  3 24  1  0
  3 25  1  0
  4  5  2  0
  4  6  1  0
  6  7  1  0
  6 26  1  0
  6 27  1  0
  7  8  1  0
  7  1  1  0
  7 28  1  6
  8  9  1  0
  8 10  1  0
  9 29  1  0
  9 30  1  0
  9 31  1  0
 10 11  1  0
 10 32  1  0
 10 33  1  0
 11  1  1  0
 11 34  1  0
 11 35  1  0
 12 13  2  0
 13 14  1  0
 13 36  1  0
 14 15  2  0
 14 37  1  0
 15 16  1  0
 16 17  2  0
 16 38  1  0
 17 20  1  0
 17 12  1  0
 18 19  1  0
 18 39  1  0
 18 40  1  0
 18 41  1  0
 19 12  1  0
 20 21  1  0
 21 42  1  0
 21 43  1  0
 21 44  1  0
M  END
>  <minimizedAffinity>  (10) 
-7.09238

>  <mol_id>  (10) 
122886

>  <source_index>  (10) 
9

>  <layer>  (10) 
L2

>  <uniprot>  (10) 
P31645

>  <paff>  (10) 
8.8538999999999994

>  <smiles>  (10) 
COc1ccc([C@@]23CCC(=O)C[C@@H]2N(C)CC3)cc1OC

>  <aimnet_interaction_kcal_mol>  (10) 
-49.572946388473625

$$$$
