L2:P31645:2227
     RDKit          3D

 47 49  0  0  0  0  0  0  0  0999 V2000
  133.6978  117.3445  111.0321 N   0  0  0  0  0  0  0  0  0  0  0  0
  133.0551  116.3395  111.8716 C   0  0  0  0  0  0  0  0  0  0  0  0
  134.0173  116.2283  113.0440 C   0  0  0  0  0  0  0  0  0  0  0  0
  135.4314  116.4494  112.4347 C   0  0  1  0  0  0  0  0  0  0  0  0
  136.1450  115.0690  112.3494 C   0  0  0  0  0  0  0  0  0  0  0  0
  137.3515  115.1010  111.4173 C   0  0  0  0  0  0  0  0  0  0  0  0
  136.9300  115.5360  110.0353 C   0  0  0  0  0  0  0  0  0  0  0  0
  137.7082  115.4779  109.0837 O   0  0  0  0  0  0  0  0  0  0  0  0
  135.5025  115.9919  109.8618 C   0  0  0  0  0  0  0  0  0  0  0  0
  135.1311  116.9865  110.9753 C   0  0  1  0  0  0  0  0  0  0  0  0
  136.1758  117.5032  113.2930 C   0  0  0  0  0  0  0  0  0  0  0  0
  135.7597  117.7498  114.6149 C   0  0  0  0  0  0  0  0  0  0  0  0
  136.4051  118.6833  115.4326 C   0  0  0  0  0  0  0  0  0  0  0  0
  137.5027  119.3975  114.9569 C   0  0  0  0  0  0  0  0  0  0  0  0
  137.9610  119.1561  113.6499 C   0  0  0  0  0  0  0  0  0  0  0  0
  137.2987  118.2183  112.8378 C   0  0  0  0  0  0  0  0  0  0  0  0
  138.1998  120.3295  115.6842 O   0  0  0  0  0  0  0  0  0  0  0  0
  137.5240  121.5288  116.0335 C   0  0  0  0  0  0  0  0  0  0  0  0
  139.0553  119.8891  113.2537 O   0  0  0  0  0  0  0  0  0  0  0  0
  140.2870  119.2052  113.0784 C   0  0  0  0  0  0  0  0  0  0  0  0
  131.6497  118.2539  109.9822 C   0  0  0  0  0  0  0  0  0  0  0  0
  132.9982  117.5753  109.7725 C   0  0  0  0  0  0  0  0  0  0  0  0
  132.9634  115.4062  111.3564 H   0  0  0  0  0  0  0  0  0  0  0  0
  132.0579  116.5984  112.1604 H   0  0  0  0  0  0  0  0  0  0  0  0
  133.9500  115.2598  113.4939 H   0  0  0  0  0  0  0  0  0  0  0  0
  133.7968  116.9411  113.8109 H   0  0  0  0  0  0  0  0  0  0  0  0
  135.4482  114.3427  111.9863 H   0  0  0  0  0  0  0  0  0  0  0  0
  136.4936  114.8182  113.3295 H   0  0  0  0  0  0  0  0  0  0  0  0
  137.7831  114.1234  111.3640 H   0  0  0  0  0  0  0  0  0  0  0  0
  138.0695  115.7966  111.7988 H   0  0  0  0  0  0  0  0  0  0  0  0
  134.8510  115.1445  109.9112 H   0  0  0  0  0  0  0  0  0  0  0  0
  135.3994  116.4726  108.9115 H   0  0  0  0  0  0  0  0  0  0  0  0
  135.7390  117.8258  110.7088 H   0  0  0  0  0  0  0  0  0  0  0  0
  134.9543  117.2262  114.9921 H   0  0  0  0  0  0  0  0  0  0  0  0
  136.0662  118.8440  116.3940 H   0  0  0  0  0  0  0  0  0  0  0  0
  137.6462  118.0498  111.8808 H   0  0  0  0  0  0  0  0  0  0  0  0
  138.1822  122.1586  116.5948 H   0  0  0  0  0  0  0  0  0  0  0  0
  136.6640  121.2942  116.6253 H   0  0  0  0  0  0  0  0  0  0  0  0
  137.2166  122.0372  115.1436 H   0  0  0  0  0  0  0  0  0  0  0  0
  141.0404  119.9003  112.7715 H   0  0  0  0  0  0  0  0  0  0  0  0
  140.1721  118.4499  112.3293 H   0  0  0  0  0  0  0  0  0  0  0  0
  140.5768  118.7500  114.0023 H   0  0  0  0  0  0  0  0  0  0  0  0
  131.1742  118.4027  109.0353 H   0  0  0  0  0  0  0  0  0  0  0  0
  131.7969  119.1999  110.4600 H   0  0  0  0  0  0  0  0  0  0  0  0
  131.0312  117.6355  110.5986 H   0  0  0  0  0  0  0  0  0  0  0  0
  133.6052  118.1988  109.1498 H   0  0  0  0  0  0  0  0  0  0  0  0
  132.8212  116.6245  109.3147 H   0  0  0  0  0  0  0  0  0  0  0  0
  1  2  1  0
  2  3  1  0
  2 23  1  0
  2 24  1  0
  3  4  1  0
  3 25  1  0
  3 26  1  0
  4 11  1  1
  4  5  1  0
  5  6  1  0
  5 27  1  0
  5 28  1  0
  6  7  1  0
  6 29  1  0
  6 30  1  0
  7  8  2  0
  7  9  1  0
  9 10  1  0
  9 31  1  0
  9 32  1  0
 10  1  1  0
 10  4  1  0
 10 33  1  6
 11 12  2  0
 12 13  1  0
 12 34  1  0
 13 14  2  0
 13 35  1  0
 14 17  1  0
 14 15  1  0
 15 19  1  0
 15 16  2  0
 16 11  1  0
 16 36  1  0
 17 18  1  0
 18 37  1  0
 18 38  1  0
 18 39  1  0
 19 20  1  0
 20 40  1  0
 20 41  1  0
 20 42  1  0
 21 22  1  0
 21 43  1  0
 21 44  1  0
 21 45  1  0
 22  1  1  0
 22 46  1  0
 22 47  1  0
M  END
>  <minimizedAffinity>  (1) 
-6.84397

>  <mol_id>  (1) 
2227

>  <source_index>  (1) 
0

>  <layer>  (1) 
L2

>  <uniprot>  (1) 
P31645

>  <paff>  (1) 
7.3010000000000002

>  <smiles>  (1) 
CCN1CC[C@@]2(c3ccc(OC)c(OC)c3)CCC(=O)C[C@@H]12

$$$$
L2:P31645:24100
     RDKit          3D

 50 52  0  0  0  0  0  0  0  0999 V2000
  135.8033  130.6861  118.5874 C   0  0  0  0  0  0  0  0  0  0  0  0
  134.5923  131.2638  119.0131 C   0  0  0  0  0  0  0  0  0  0  0  0
  133.6778  130.5686  119.8270 C   0  0  0  0  0  0  0  0  0  0  0  0
  134.0341  129.2632  120.2188 C   0  0  0  0  0  0  0  0  0  0  0  0
  135.2388  128.6816  119.8179 C   0  0  0  0  0  0  0  0  0  0  0  0
  136.1342  129.3993  119.0261 C   0  0  0  0  0  0  0  0  0  0  0  0
  132.3402  131.1828  120.3091 C   0  0  1  0  0  0  0  0  0  0  0  0
  131.0985  130.4206  119.7559 C   0  0  0  0  0  0  0  0  0  0  0  0
  129.7627  130.8956  120.3186 C   0  0  0  0  0  0  0  0  0  0  0  0
  129.7830  130.9149  121.8252 C   0  0  0  0  0  0  0  0  0  0  0  0
  128.7716  131.1882  122.4711 O   0  0  0  0  0  0  0  0  0  0  0  0
  131.0749  130.5439  122.5010 C   0  0  0  0  0  0  0  0  0  0  0  0
  132.2786  131.2728  121.8833 C   0  0  2  0  0  0  0  0  0  0  0  0
  132.4318  132.7121  122.1729 N   0  0  0  0  0  0  0  0  0  0  0  0
  131.9852  133.1740  123.4759 C   0  0  0  0  0  0  0  0  0  0  0  0
  131.8474  133.4626  121.0718 C   0  0  0  0  0  0  0  0  0  0  0  0
  132.2807  132.6693  119.8505 C   0  0  0  0  0  0  0  0  0  0  0  0
  135.9253  133.2382  117.5445 C   0  0  0  0  0  0  0  0  0  0  0  0
  136.8611  131.6855  117.5400 S   0  0  0  0  0  0  0  0  0  0  0  0
  137.3072  128.8132  118.6274 O   0  0  0  0  0  0  0  0  0  0  0  0
  137.1113  127.7347  117.6975 C   0  0  0  0  0  0  0  0  0  0  0  0
  137.9339  126.5426  118.1758 C   0  0  0  0  0  0  0  0  0  0  0  0
  137.5967  128.2037  116.3301 C   0  0  0  0  0  0  0  0  0  0  0  0
  134.3678  132.2273  118.7193 H   0  0  0  0  0  0  0  0  0  0  0  0
  133.3890  128.7234  120.8168 H   0  0  0  0  0  0  0  0  0  0  0  0
  135.4669  127.7180  120.1085 H   0  0  0  0  0  0  0  0  0  0  0  0
  131.2107  129.3830  119.9920 H   0  0  0  0  0  0  0  0  0  0  0  0
  131.0697  130.6092  118.7030 H   0  0  0  0  0  0  0  0  0  0  0  0
  128.9895  130.2338  119.9883 H   0  0  0  0  0  0  0  0  0  0  0  0
  129.5819  131.8906  119.9690 H   0  0  0  0  0  0  0  0  0  0  0  0
  131.2240  129.4887  122.4054 H   0  0  0  0  0  0  0  0  0  0  0  0
  131.0051  130.8338  123.5286 H   0  0  0  0  0  0  0  0  0  0  0  0
  133.0612  130.7305  122.3715 H   0  0  0  0  0  0  0  0  0  0  0  0
  132.4477  132.5856  124.2406 H   0  0  0  0  0  0  0  0  0  0  0  0
  130.9219  133.0755  123.5441 H   0  0  0  0  0  0  0  0  0  0  0  0
  132.2571  134.2011  123.6027 H   0  0  0  0  0  0  0  0  0  0  0  0
  132.2326  134.4603  121.0390 H   0  0  0  0  0  0  0  0  0  0  0  0
  130.7857  133.5696  121.1506 H   0  0  0  0  0  0  0  0  0  0  0  0
  133.2438  132.9951  119.5171 H   0  0  0  0  0  0  0  0  0  0  0  0
  131.6026  132.8024  119.0336 H   0  0  0  0  0  0  0  0  0  0  0  0
  136.4359  133.9641  116.9468 H   0  0  0  0  0  0  0  0  0  0  0  0
  135.8387  133.5996  118.5479 H   0  0  0  0  0  0  0  0  0  0  0  0
  134.9489  133.0674  117.1415 H   0  0  0  0  0  0  0  0  0  0  0  0
  136.0824  127.4487  117.6315 H   0  0  0  0  0  0  0  0  0  0  0  0
  138.9640  126.8241  118.2433 H   0  0  0  0  0  0  0  0  0  0  0  0
  137.8296  125.7355  117.4811 H   0  0  0  0  0  0  0  0  0  0  0  0
  137.5852  126.2319  119.1385 H   0  0  0  0  0  0  0  0  0  0  0  0
  138.6256  128.4898  116.3957 H   0  0  0  0  0  0  0  0  0  0  0  0
  137.0128  129.0423  116.0127 H   0  0  0  0  0  0  0  0  0  0  0  0
  137.4922  127.4080  115.6224 H   0  0  0  0  0  0  0  0  0  0  0  0
  1  2  2  0
  2  3  1  0
  2 24  1  0
  3  4  2  0
  4  5  1  0
  4 25  1  0
  5  6  2  0
  5 26  1  0
  6 20  1  0
  6  1  1  0
  7  3  1  1
  7  8  1  0
  8  9  1  0
  8 27  1  0
  8 28  1  0
  9 10  1  0
  9 29  1  0
  9 30  1  0
 10 11  2  0
 10 12  1  0
 12 13  1  0
 12 31  1  0
 12 32  1  0
 13 14  1  0
 13  7  1  0
 13 33  1  1
 14 15  1  0
 14 16  1  0
 15 34  1  0
 15 35  1  0
 15 36  1  0
 16 17  1  0
 16 37  1  0
 16 38  1  0
 17  7  1  0
 17 39  1  0
 17 40  1  0
 18 19  1  0
 18 41  1  0
 18 42  1  0
 18 43  1  0
 19  1  1  0
 20 21  1  0
 21 22  1  0
 21 23  1  0
 21 44  1  0
 22 45  1  0
 22 46  1  0
 22 47  1  0
 23 48  1  0
 23 49  1  0
 23 50  1  0
M  END
>  <minimizedAffinity>  (2) 
-7.13517

>  <mol_id>  (2) 
24100

>  <source_index>  (2) 
1

>  <layer>  (2) 
L2

>  <uniprot>  (2) 
P31645

>  <paff>  (2) 
6.5228999999999999

>  <smiles>  (2) 
CSc1cc([C@@]23CCC(=O)C[C@@H]2N(C)CC3)ccc1OC(C)C

$$$$
L2:P31645:33467
     RDKit          3D

 46 48  0  0  0  0  0  0  0  0999 V2000
  137.7718  128.7082  116.3725 C   0  0  2  0  0  0  0  0  0  0  0  0
  136.2610  129.0820  116.4309 C   0  0  0  0  0  0  0  0  0  0  0  0
  135.5853  128.5780  117.7032 C   0  0  0  0  0  0  0  0  0  0  0  0
  136.3359  129.0685  118.9241 C   0  0  0  0  0  0  0  0  0  0  0  0
  135.9832  128.8129  120.1481 N   0  0  0  0  0  0  0  0  0  0  0  0
  134.8238  128.0317  120.1854 O   0  0  0  0  0  0  0  0  0  0  0  0
  137.5651  129.9107  118.6856 C   0  0  0  0  0  0  0  0  0  0  0  0
  138.4929  129.1761  117.7017 C   0  0  2  0  0  0  0  0  0  0  0  0
  139.6420  129.9693  117.2173 N   0  0  0  0  0  0  0  0  0  0  0  0
  140.2740  130.8498  118.1843 C   0  0  0  0  0  0  0  0  0  0  0  0
  139.1961  130.6625  116.0155 C   0  0  0  0  0  0  0  0  0  0  0  0
  138.4437  129.5722  115.2678 C   0  0  0  0  0  0  0  0  0  0  0  0
  134.7077  127.8683  121.1399 H   0  0  0  0  0  0  0  0  0  0  0  0
  138.4580  124.4456  115.5040 C   0  0  0  0  0  0  0  0  0  0  0  0
  137.1691  124.9684  115.5733 C   0  0  0  0  0  0  0  0  0  0  0  0
  136.9710  126.3279  115.8529 C   0  0  0  0  0  0  0  0  0  0  0  0
  138.0471  127.2192  116.0529 C   0  0  0  0  0  0  0  0  0  0  0  0
  139.3365  126.6719  115.9897 C   0  0  0  0  0  0  0  0  0  0  0  0
  139.5337  125.3067  115.7399 C   0  0  0  0  0  0  0  0  0  0  0  0
  137.8152  122.3948  114.4878 C   0  0  0  0  0  0  0  0  0  0  0  0
  138.7624  123.1329  115.2558 O   0  0  0  0  0  0  0  0  0  0  0  0
  140.8315  124.8568  115.6660 O   0  0  0  0  0  0  0  0  0  0  0  0
  141.4262  124.8760  116.9637 C   0  0  0  0  0  0  0  0  0  0  0  0
  135.7673  128.6501  115.5855 H   0  0  0  0  0  0  0  0  0  0  0  0
  136.1887  130.1495  116.4243 H   0  0  0  0  0  0  0  0  0  0  0  0
  135.5778  127.5080  117.6993 H   0  0  0  0  0  0  0  0  0  0  0  0
  134.5828  128.9504  117.7369 H   0  0  0  0  0  0  0  0  0  0  0  0
  138.0771  130.0684  119.6118 H   0  0  0  0  0  0  0  0  0  0  0  0
  137.2807  130.8574  118.2759 H   0  0  0  0  0  0  0  0  0  0  0  0
  138.8144  128.3538  118.3062 H   0  0  0  0  0  0  0  0  0  0  0  0
  140.5769  130.2820  119.0391 H   0  0  0  0  0  0  0  0  0  0  0  0
  139.5792  131.6055  118.4861 H   0  0  0  0  0  0  0  0  0  0  0  0
  141.1314  131.3106  117.7401 H   0  0  0  0  0  0  0  0  0  0  0  0
  140.0272  131.0203  115.4444 H   0  0  0  0  0  0  0  0  0  0  0  0
  138.6021  131.5291  116.2181 H   0  0  0  0  0  0  0  0  0  0  0  0
  139.1202  128.9798  114.6879 H   0  0  0  0  0  0  0  0  0  0  0  0
  137.7258  129.9778  114.5859 H   0  0  0  0  0  0  0  0  0  0  0  0
  136.3559  124.3522  115.4181 H   0  0  0  0  0  0  0  0  0  0  0  0
  136.0062  126.6890  115.9145 H   0  0  0  0  0  0  0  0  0  0  0  0
  140.1548  127.2850  116.1296 H   0  0  0  0  0  0  0  0  0  0  0  0
  138.1627  121.3906  114.3623 H   0  0  0  0  0  0  0  0  0  0  0  0
  137.6982  122.8542  113.5285 H   0  0  0  0  0  0  0  0  0  0  0  0
  136.8736  122.3855  114.9960 H   0  0  0  0  0  0  0  0  0  0  0  0
  142.4349  124.5251  116.8990 H   0  0  0  0  0  0  0  0  0  0  0  0
  140.8692  124.2412  117.6207 H   0  0  0  0  0  0  0  0  0  0  0  0
  141.4202  125.8761  117.3440 H   0  0  0  0  0  0  0  0  0  0  0  0
  1 17  1  6
  1  2  1  0
  2  3  1  0
  2 24  1  0
  2 25  1  0
  3  4  1  0
  3 26  1  0
  3 27  1  0
  4  5  2  0
  4  7  1  0
  5  6  1  0
  6 13  1  0
  7  8  1  0
  7 28  1  0
  7 29  1  0
  8  9  1  0
  8  1  1  0
  8 30  1  1
  9 10  1  0
  9 11  1  0
 10 31  1  0
 10 32  1  0
 10 33  1  0
 11 12  1  0
 11 34  1  0
 11 35  1  0
 12  1  1  0
 12 36  1  0
 12 37  1  0
 14 15  2  0
 15 16  1  0
 15 38  1  0
 16 17  2  0
 16 39  1  0
 17 18  1  0
 18 19  2  0
 18 40  1  0
 19 22  1  0
 19 14  1  0
 20 21  1  0
 20 41  1  0
 20 42  1  0
 20 43  1  0
 21 14  1  0
 22 23  1  0
 23 44  1  0
 23 45  1  0
 23 46  1  0
M  END
>  <minimizedAffinity>  (3) 
-7.13125

>  <mol_id>  (3) 
33467

>  <source_index>  (3) 
2

>  <layer>  (3) 
L2

>  <uniprot>  (3) 
P31645

>  <paff>  (3) 
7.3010000000000002

>  <smiles>  (3) 
COc3ccc([C@@]12CC/C(=N\O)C[C@@H]1N(C)CC2)cc3OC

$$$$
L2:P31645:67792
     RDKit          3D

 51 54  0  0  0  0  0  0  0  0999 V2000
  139.7539  123.8477  117.7943 C   0  0  0  0  0  0  0  0  0  0  0  0
  139.4609  125.2192  117.7340 C   0  0  0  0  0  0  0  0  0  0  0  0
  138.7646  125.7935  116.6441 C   0  0  0  0  0  0  0  0  0  0  0  0
  138.4213  124.9313  115.5851 C   0  0  0  0  0  0  0  0  0  0  0  0
  138.7039  123.5635  115.6333 C   0  0  0  0  0  0  0  0  0  0  0  0
  139.3398  123.0205  116.7469 C   0  0  0  0  0  0  0  0  0  0  0  0
  138.4893  127.3194  116.5691 C   0  0  1  0  0  0  0  0  0  0  0  0
  137.1018  127.6778  115.9612 C   0  0  0  0  0  0  0  0  0  0  0  0
  135.9496  127.2910  116.8873 C   0  0  0  0  0  0  0  0  0  0  0  0
  136.2144  127.7721  118.2949 C   0  0  0  0  0  0  0  0  0  0  0  0
  135.4920  127.4393  119.2317 O   0  0  0  0  0  0  0  0  0  0  0  0
  137.3670  128.7218  118.4793 C   0  0  0  0  0  0  0  0  0  0  0  0
  138.6499  128.0706  117.9504 C   0  0  2  0  0  0  0  0  0  0  0  0
  139.6685  129.1131  117.7010 N   0  0  0  0  0  0  0  0  0  0  0  0
  140.3919  129.5122  118.9022 C   0  0  0  0  0  0  0  0  0  0  0  0
  140.5672  128.5811  116.6788 C   0  0  0  0  0  0  0  0  0  0  0  0
  139.6019  127.9489  115.6915 C   0  0  0  0  0  0  0  0  0  0  0  0
  141.5880  123.8634  119.3113 C   0  0  0  0  0  0  0  0  0  0  0  0
  140.4080  123.2336  118.8311 O   0  0  0  0  0  0  0  0  0  0  0  0
  139.6631  121.6881  116.7698 O   0  0  0  0  0  0  0  0  0  0  0  0
  139.9458  121.1693  115.4676 C   0  0  0  0  0  0  0  0  0  0  0  0
  139.2625  119.8426  115.3339 C   0  0  0  0  0  0  0  0  0  0  0  0
  137.7655  119.7691  115.1773 C   0  0  0  0  0  0  0  0  0  0  0  0
  138.6582  119.4113  114.0208 C   0  0  0  0  0  0  0  0  0  0  0  0
  139.7632  125.8287  118.5100 H   0  0  0  0  0  0  0  0  0  0  0  0
  137.9495  125.3189  114.7531 H   0  0  0  0  0  0  0  0  0  0  0  0
  138.4409  122.9549  114.8424 H   0  0  0  0  0  0  0  0  0  0  0  0
  136.9874  127.1580  115.0330 H   0  0  0  0  0  0  0  0  0  0  0  0
  137.0685  128.7379  115.8200 H   0  0  0  0  0  0  0  0  0  0  0  0
  135.8456  126.2261  116.8934 H   0  0  0  0  0  0  0  0  0  0  0  0
  135.0509  127.7486  116.5296 H   0  0  0  0  0  0  0  0  0  0  0  0
  137.4825  128.9460  119.5192 H   0  0  0  0  0  0  0  0  0  0  0  0
  137.1758  129.6262  117.9405 H   0  0  0  0  0  0  0  0  0  0  0  0
  138.9202  127.3622  118.7054 H   0  0  0  0  0  0  0  0  0  0  0  0
  139.7010  129.8950  119.6240 H   0  0  0  0  0  0  0  0  0  0  0  0
  141.1049  130.2704  118.6538 H   0  0  0  0  0  0  0  0  0  0  0  0
  140.9008  128.6641  119.3104 H   0  0  0  0  0  0  0  0  0  0  0  0
  141.2327  127.8514  117.0905 H   0  0  0  0  0  0  0  0  0  0  0  0
  141.2020  129.3225  116.2404 H   0  0  0  0  0  0  0  0  0  0  0  0
  140.0950  127.1967  115.1119 H   0  0  0  0  0  0  0  0  0  0  0  0
  139.2114  128.6627  114.9965 H   0  0  0  0  0  0  0  0  0  0  0  0
  141.9982  123.2874  120.1143 H   0  0  0  0  0  0  0  0  0  0  0  0
  141.3504  124.8459  119.6623 H   0  0  0  0  0  0  0  0  0  0  0  0
  142.3039  123.9312  118.5189 H   0  0  0  0  0  0  0  0  0  0  0  0
  141.0020  121.0465  115.3481 H   0  0  0  0  0  0  0  0  0  0  0  0
  139.5928  121.8443  114.7161 H   0  0  0  0  0  0  0  0  0  0  0  0
  139.9781  119.4224  116.0093 H   0  0  0  0  0  0  0  0  0  0  0  0
  137.1863  120.6683  115.1474 H   0  0  0  0  0  0  0  0  0  0  0  0
  136.9739  119.2761  115.7019 H   0  0  0  0  0  0  0  0  0  0  0  0
  138.7141  120.0561  113.1688 H   0  0  0  0  0  0  0  0  0  0  0  0
  138.7646  118.5589  113.3828 H   0  0  0  0  0  0  0  0  0  0  0  0
  1  2  2  0
  2  3  1  0
  2 25  1  0
  3  4  2  0
  4  5  1  0
  4 26  1  0
  5  6  2  0
  5 27  1  0
  6 20  1  0
  6  1  1  0
  7  3  1  1
  7  8  1  0
  8  9  1  0
  8 28  1  0
  8 29  1  0
  9 10  1  0
  9 30  1  0
  9 31  1  0
 10 11  2  0
 10 12  1  0
 12 13  1  0
 12 32  1  0
 12 33  1  0
 13 14  1  0
 13  7  1  0
 13 34  1  1
 14 15  1  0
 14 16  1  0
 15 35  1  0
 15 36  1  0
 15 37  1  0
 16 17  1  0
 16 38  1  0
 16 39  1  0
 17  7  1  0
 17 40  1  0
 17 41  1  0
 18 19  1  0
 18 42  1  0
 18 43  1  0
 18 44  1  0
 19  1  1  0
 20 21  1  0
 21 22  1  0
 21 45  1  0
 21 46  1  0
 22 23  1  0
 22 47  1  0
 23 24  1  0
 23 48  1  0
 23 49  1  0
 24 22  1  0
 24 50  1  0
 24 51  1  0
M  END
>  <minimizedAffinity>  (4) 
-7.03564

>  <mol_id>  (4) 
67792

>  <source_index>  (4) 
3

>  <layer>  (4) 
L2

>  <uniprot>  (4) 
P31645

>  <paff>  (4) 
6.0457999999999998

>  <smiles>  (4) 
COc1cc([C@@]23CCC(=O)C[C@@H]2N(C)CC3)ccc1OCC1CC1

$$$$
L2:P31645:76063
     RDKit          3D

 47 49  0  0  0  0  0  0  0  0999 V2000
  137.1105  119.2307  114.9191 C   0  0  0  0  0  0  0  0  0  0  0  0
  136.0818  118.4251  115.3984 C   0  0  0  0  0  0  0  0  0  0  0  0
  135.4546  117.5012  114.5500 C   0  0  0  0  0  0  0  0  0  0  0  0
  135.8371  117.3386  113.2021 C   0  0  0  0  0  0  0  0  0  0  0  0
  136.8580  118.1792  112.7298 C   0  0  0  0  0  0  0  0  0  0  0  0
  137.4695  119.1159  113.5728 C   0  0  0  0  0  0  0  0  0  0  0  0
  135.1134  116.3030  112.3110 C   0  0  1  0  0  0  0  0  0  0  0  0
  133.5940  116.1475  112.6123 C   0  0  0  0  0  0  0  0  0  0  0  0
  132.7675  117.3263  112.1032 C   0  0  0  0  0  0  0  0  0  0  0  0
  133.0403  117.5739  110.6408 C   0  0  0  0  0  0  0  0  0  0  0  0
  132.4550  118.4620  110.0248 O   0  0  0  0  0  0  0  0  0  0  0  0
  134.0154  116.6489  109.9603 C   0  0  0  0  0  0  0  0  0  0  0  0
  135.3220  116.5930  110.7686 C   0  0  2  0  0  0  0  0  0  0  0  0
  136.2713  115.5439  110.3391 N   0  0  0  0  0  0  0  0  0  0  0  0
  136.3573  115.2906  108.9108 C   0  0  0  0  0  0  0  0  0  0  0  0
  135.9588  114.3513  111.1172 C   0  0  0  0  0  0  0  0  0  0  0  0
  135.7925  114.9182  112.5172 C   0  0  0  0  0  0  0  0  0  0  0  0
  137.0517  121.3538  115.9757 C   0  0  0  0  0  0  0  0  0  0  0  0
  137.7801  120.1693  115.6562 O   0  0  0  0  0  0  0  0  0  0  0  0
  138.5009  119.8584  113.0516 O   0  0  0  0  0  0  0  0  0  0  0  0
  139.6467  119.0249  112.8121 C   0  0  0  0  0  0  0  0  0  0  0  0
  140.7224  119.2883  113.8503 C   0  0  0  0  0  0  0  0  0  0  0  0
  140.4639  118.6671  115.0230 F   0  0  0  0  0  0  0  0  0  0  0  0
  140.8044  120.6180  114.1098 F   0  0  0  0  0  0  0  0  0  0  0  0
  141.9441  118.8930  113.4227 F   0  0  0  0  0  0  0  0  0  0  0  0
  135.7795  118.5079  116.3816 H   0  0  0  0  0  0  0  0  0  0  0  0
  134.6877  116.9210  114.9243 H   0  0  0  0  0  0  0  0  0  0  0  0
  137.1624  118.1057  111.7465 H   0  0  0  0  0  0  0  0  0  0  0  0
  133.4615  116.0687  113.6711 H   0  0  0  0  0  0  0  0  0  0  0  0
  133.2523  115.2702  112.1038 H   0  0  0  0  0  0  0  0  0  0  0  0
  133.0232  118.2023  112.6618 H   0  0  0  0  0  0  0  0  0  0  0  0
  131.7294  117.0984  112.2266 H   0  0  0  0  0  0  0  0  0  0  0  0
  134.2214  117.0110  108.9747 H   0  0  0  0  0  0  0  0  0  0  0  0
  133.5923  115.6680  109.8999 H   0  0  0  0  0  0  0  0  0  0  0  0
  135.7108  117.5733  110.5877 H   0  0  0  0  0  0  0  0  0  0  0  0
  136.5881  116.2021  108.4002 H   0  0  0  0  0  0  0  0  0  0  0  0
  135.4206  114.9119  108.5587 H   0  0  0  0  0  0  0  0  0  0  0  0
  137.1266  114.5713  108.7218 H   0  0  0  0  0  0  0  0  0  0  0  0
  136.7586  113.6416  111.0782 H   0  0  0  0  0  0  0  0  0  0  0  0
  135.1002  113.8196  110.7635 H   0  0  0  0  0  0  0  0  0  0  0  0
  136.7443  115.0328  112.9924 H   0  0  0  0  0  0  0  0  0  0  0  0
  135.2126  114.2751  113.1457 H   0  0  0  0  0  0  0  0  0  0  0  0
  137.6719  122.0099  116.5500 H   0  0  0  0  0  0  0  0  0  0  0  0
  136.1828  121.0957  116.5443 H   0  0  0  0  0  0  0  0  0  0  0  0
  136.7541  121.8441  115.0724 H   0  0  0  0  0  0  0  0  0  0  0  0
  140.0379  119.2353  111.8386 H   0  0  0  0  0  0  0  0  0  0  0  0
  139.3480  117.9994  112.8760 H   0  0  0  0  0  0  0  0  0  0  0  0
  1  2  2  0
  2  3  1  0
  2 26  1  0
  3  4  2  0
  3 27  1  0
  4  5  1  0
  5  6  2  0
  5 28  1  0
  6 20  1  0
  6  1  1  0
  7  4  1  1
  7  8  1  0
  8  9  1  0
  8 29  1  0
  8 30  1  0
  9 10  1  0
  9 31  1  0
  9 32  1  0
 10 11  2  0
 10 12  1  0
 12 13  1  0
 12 33  1  0
 12 34  1  0
 13 14  1  0
 13  7  1  0
 13 35  1  1
 14 15  1  0
 14 16  1  0
 15 36  1  0
 15 37  1  0
 15 38  1  0
 16 17  1  0
 16 39  1  0
 16 40  1  0
 17  7  1  0
 17 41  1  0
 17 42  1  0
 18 19  1  0
 18 43  1  0
 18 44  1  0
 18 45  1  0
 19  1  1  0
 20 21  1  0
 21 22  1  0
 21 46  1  0
 21 47  1  0
 22 23  1  0
 22 24  1  0
 22 25  1  0
M  END
>  <minimizedAffinity>  (5) 
-7.05750

>  <mol_id>  (5) 
76063

>  <source_index>  (5) 
4

>  <layer>  (5) 
L2

>  <uniprot>  (5) 
P31645

>  <paff>  (5) 
7

>  <smiles>  (5) 
COc1ccc([C@@]23CCC(=O)C[C@@H]2N(C)CC3)cc1OCC(F)(F)F

$$$$
L2:P31645:78423
     RDKit          3D

 60 63  0  0  0  0  0  0  0  0999 V2000
  138.0449  122.9713  115.6341 C   0  0  0  0  0  0  0  0  0  0  0  0
  137.7008  124.3261  115.7354 C   0  0  0  0  0  0  0  0  0  0  0  0
  138.6011  125.2880  116.2487 C   0  0  0  0  0  0  0  0  0  0  0  0
  139.8481  124.8288  116.6993 C   0  0  0  0  0  0  0  0  0  0  0  0
  140.2040  123.4804  116.5943 C   0  0  0  0  0  0  0  0  0  0  0  0
  139.3196  122.5569  116.0374 C   0  0  0  0  0  0  0  0  0  0  0  0
  138.1616  126.7615  116.3711 C   0  0  1  0  0  0  0  0  0  0  0  0
  136.7603  126.8730  115.6922 C   0  0  0  0  0  0  0  0  0  0  0  0
  135.9611  128.0911  116.1395 C   0  0  0  0  0  0  0  0  0  0  0  0
  135.7177  128.0189  117.6293 C   0  0  0  0  0  0  0  0  0  0  0  0
  134.7047  128.5031  118.1361 O   0  0  0  0  0  0  0  0  0  0  0  0
  136.7429  127.2904  118.4694 C   0  0  0  0  0  0  0  0  0  0  0  0
  138.1358  127.3377  117.8341 C   0  0  2  0  0  0  0  0  0  0  0  0
  138.6465  128.7181  117.6896 N   0  0  0  0  0  0  0  0  0  0  0  0
  139.0874  129.3148  118.9481 C   0  0  0  0  0  0  0  0  0  0  0  0
  139.7559  128.6014  116.7466 C   0  0  0  0  0  0  0  0  0  0  0  0
  139.1761  127.7119  115.6597 C   0  0  0  0  0  0  0  0  0  0  0  0
  137.2220  122.0008  115.1224 O   0  0  0  0  0  0  0  0  0  0  0  0
  136.4683  121.2307  116.0574 C   0  0  0  0  0  0  0  0  0  0  0  0
  136.6061  119.7605  115.6667 C   0  0  0  0  0  0  0  0  0  0  0  0
  135.2589  117.7964  114.8499 C   0  0  0  0  0  0  0  0  0  0  0  0
  135.2705  119.0262  115.7441 C   0  0  0  0  0  0  0  0  0  0  0  0
  139.6138  121.2195  115.9673 O   0  0  0  0  0  0  0  0  0  0  0  0
  140.4641  120.8427  114.8798 C   0  0  0  0  0  0  0  0  0  0  0  0
  139.9499  119.5668  114.2808 C   0  0  0  0  0  0  0  0  0  0  0  0
  140.5301  119.0306  112.9958 C   0  0  0  0  0  0  0  0  0  0  0  0
  139.1333  119.5907  113.0133 C   0  0  0  0  0  0  0  0  0  0  0  0
  136.7642  124.6302  115.4267 H   0  0  0  0  0  0  0  0  0  0  0  0
  140.5144  125.4979  117.1156 H   0  0  0  0  0  0  0  0  0  0  0  0
  141.1276  123.1665  116.9313 H   0  0  0  0  0  0  0  0  0  0  0  0
  136.1984  125.9939  115.9296 H   0  0  0  0  0  0  0  0  0  0  0  0
  136.9284  126.9767  114.6406 H   0  0  0  0  0  0  0  0  0  0  0  0
  135.0226  128.1094  115.6259 H   0  0  0  0  0  0  0  0  0  0  0  0
  136.5114  128.9801  115.9121 H   0  0  0  0  0  0  0  0  0  0  0  0
  136.4435  126.2683  118.5720 H   0  0  0  0  0  0  0  0  0  0  0  0
  136.7955  127.7732  119.4228 H   0  0  0  0  0  0  0  0  0  0  0  0
  138.7328  126.7533  118.5026 H   0  0  0  0  0  0  0  0  0  0  0  0
  138.2566  129.3881  119.6184 H   0  0  0  0  0  0  0  0  0  0  0  0
  139.4818  130.2917  118.7608 H   0  0  0  0  0  0  0  0  0  0  0  0
  139.8467  128.7017  119.3868 H   0  0  0  0  0  0  0  0  0  0  0  0
  140.6070  128.1442  117.2064 H   0  0  0  0  0  0  0  0  0  0  0  0
  140.1055  129.5448  116.3825 H   0  0  0  0  0  0  0  0  0  0  0  0
  139.9525  127.1430  115.1923 H   0  0  0  0  0  0  0  0  0  0  0  0
  138.6997  128.2896  114.8954 H   0  0  0  0  0  0  0  0  0  0  0  0
  136.8496  121.3824  117.0456 H   0  0  0  0  0  0  0  0  0  0  0  0
  135.4402  121.5270  116.0443 H   0  0  0  0  0  0  0  0  0  0  0  0
  136.9762  119.7016  114.6645 H   0  0  0  0  0  0  0  0  0  0  0  0
  137.2817  119.2955  116.3539 H   0  0  0  0  0  0  0  0  0  0  0  0
  134.3105  117.3072  114.9285 H   0  0  0  0  0  0  0  0  0  0  0  0
  136.0332  117.1248  115.1570 H   0  0  0  0  0  0  0  0  0  0  0  0
  135.4249  118.0918  113.8350 H   0  0  0  0  0  0  0  0  0  0  0  0
  135.0987  118.7224  116.7556 H   0  0  0  0  0  0  0  0  0  0  0  0
  134.5015  119.6914  115.4107 H   0  0  0  0  0  0  0  0  0  0  0  0
  141.4614  120.6950  115.2381 H   0  0  0  0  0  0  0  0  0  0  0  0
  140.4692  121.6148  114.1391 H   0  0  0  0  0  0  0  0  0  0  0  0
  139.8082  119.1772  115.2672 H   0  0  0  0  0  0  0  0  0  0  0  0
  140.6830  117.9784  112.8760 H   0  0  0  0  0  0  0  0  0  0  0  0
  141.4155  119.2242  112.4270 H   0  0  0  0  0  0  0  0  0  0  0  0
  138.2934  118.9365  112.9058 H   0  0  0  0  0  0  0  0  0  0  0  0
  138.6150  120.3472  112.4619 H   0  0  0  0  0  0  0  0  0  0  0  0
  1  2  2  0
  2  3  1  0
  2 28  1  0
  3  4  2  0
  4  5  1  0
  4 29  1  0
  5  6  2  0
  5 30  1  0
  6 23  1  0
  6  1  1  0
  7  3  1  1
  7  8  1  0
  8  9  1  0
  8 31  1  0
  8 32  1  0
  9 10  1  0
  9 33  1  0
  9 34  1  0
 10 11  2  0
 10 12  1  0
 12 13  1  0
 12 35  1  0
 12 36  1  0
 13 14  1  0
 13  7  1  0
 13 37  1  1
 14 15  1  0
 14 16  1  0
 15 38  1  0
 15 39  1  0
 15 40  1  0
 16 17  1  0
 16 41  1  0
 16 42  1  0
 17  7  1  0
 17 43  1  0
 17 44  1  0
 18  1  1  0
 19 18  1  0
 19 45  1  0
 19 46  1  0
 20 19  1  0
 20 47  1  0
 20 48  1  0
 21 22  1  0
 21 49  1  0
 21 50  1  0
 21 51  1  0
 22 20  1  0
 22 52  1  0
 22 53  1  0
 23 24  1  0
 24 25  1  0
 24 54  1  0
 24 55  1  0
 25 26  1  0
 25 56  1  0
 26 27  1  0
 26 57  1  0
 26 58  1  0
 27 25  1  0
 27 59  1  0
 27 60  1  0
M  END
>  <minimizedAffinity>  (6) 
-7.74652

>  <mol_id>  (6) 
78423

>  <source_index>  (6) 
5

>  <layer>  (6) 
L2

>  <uniprot>  (6) 
P31645

>  <paff>  (6) 
6.0968999999999998

>  <smiles>  (6) 
CCCCOc1cc([C@@]23CCC(=O)C[C@@H]2N(C)CC3)ccc1OCC1CC1

$$$$
L2:P31645:96347
     RDKit          3D

 60 63  0  0  0  0  0  0  0  0999 V2000
  138.5237  123.6784  115.9821 C   0  0  2  0  0  0  0  0  0  0  0  0
  137.4629  124.6540  115.4208 C   0  0  0  0  0  0  0  0  0  0  0  0
  137.6162  126.1180  115.8271 C   0  0  0  0  0  0  0  0  0  0  0  0
  137.7135  126.2946  117.3502 C   0  0  1  0  0  0  0  0  0  0  0  0
  138.9258  125.4766  117.8326 C   0  0  0  0  0  0  0  0  0  0  0  0
  138.8219  123.9750  117.4821 C   0  0  2  0  0  0  0  0  0  0  0  0
  140.0896  123.2526  117.6811 N   0  0  0  0  0  0  0  0  0  0  0  0
  140.7943  123.4764  118.9277 C   0  0  0  0  0  0  0  0  0  0  0  0
  140.9098  123.4676  116.4877 C   0  0  0  0  0  0  0  0  0  0  0  0
  139.9338  123.8818  115.3793 C   0  0  0  0  0  0  0  0  0  0  0  0
  137.8287  127.7997  117.7651 C   0  0  2  0  0  0  0  0  0  0  0  0
  136.8288  128.1623  118.8940 C   0  0  0  0  0  0  0  0  0  0  0  0
  136.3768  129.6188  118.8467 C   0  0  0  0  0  0  0  0  0  0  0  0
  135.6069  129.8893  117.5592 C   0  0  0  0  0  0  0  0  0  0  0  0
  136.3001  129.2611  116.3717 C   0  0  0  0  0  0  0  0  0  0  0  0
  135.7524  129.1935  115.2722 O   0  0  0  0  0  0  0  0  0  0  0  0
  137.7178  128.7831  116.5812 C   0  0  0  0  0  0  0  0  0  0  0  0
  137.1188  119.5963  115.1191 C   0  0  0  0  0  0  0  0  0  0  0  0
  136.3892  120.4526  115.9431 C   0  0  0  0  0  0  0  0  0  0  0  0
  136.8466  121.7497  116.1996 C   0  0  0  0  0  0  0  0  0  0  0  0
  138.0489  122.2329  115.6503 C   0  0  0  0  0  0  0  0  0  0  0  0
  138.7674  121.3581  114.8156 C   0  0  0  0  0  0  0  0  0  0  0  0
  138.3141  120.0571  114.5406 C   0  0  0  0  0  0  0  0  0  0  0  0
  135.3606  118.0169  114.7741 C   0  0  0  0  0  0  0  0  0  0  0  0
  136.7492  118.3110  114.8098 O   0  0  0  0  0  0  0  0  0  0  0  0
  138.9756  119.1626  113.7328 O   0  0  0  0  0  0  0  0  0  0  0  0
  140.2928  119.5001  113.3229 C   0  0  0  0  0  0  0  0  0  0  0  0
  136.5026  124.3206  115.7549 H   0  0  0  0  0  0  0  0  0  0  0  0
  137.5884  124.6355  114.3583 H   0  0  0  0  0  0  0  0  0  0  0  0
  136.7679  126.6643  115.4711 H   0  0  0  0  0  0  0  0  0  0  0  0
  138.5254  126.4830  115.3970 H   0  0  0  0  0  0  0  0  0  0  0  0
  136.8170  125.9402  117.8145 H   0  0  0  0  0  0  0  0  0  0  0  0
  139.0011  125.5738  118.8955 H   0  0  0  0  0  0  0  0  0  0  0  0
  139.7900  125.8619  117.3330 H   0  0  0  0  0  0  0  0  0  0  0  0
  138.0290  123.6622  118.1289 H   0  0  0  0  0  0  0  0  0  0  0  0
  140.1313  123.3001  119.7488 H   0  0  0  0  0  0  0  0  0  0  0  0
  141.1448  124.4867  118.9628 H   0  0  0  0  0  0  0  0  0  0  0  0
  141.6270  122.8075  118.9917 H   0  0  0  0  0  0  0  0  0  0  0  0
  141.4190  122.5660  116.2181 H   0  0  0  0  0  0  0  0  0  0  0  0
  141.6579  124.2145  116.6532 H   0  0  0  0  0  0  0  0  0  0  0  0
  140.0646  123.2651  114.5147 H   0  0  0  0  0  0  0  0  0  0  0  0
  140.0919  124.8923  115.0649 H   0  0  0  0  0  0  0  0  0  0  0  0
  138.8215  127.9132  118.1476 H   0  0  0  0  0  0  0  0  0  0  0  0
  137.3003  127.9823  119.8375 H   0  0  0  0  0  0  0  0  0  0  0  0
  135.9594  127.5534  118.7585 H   0  0  0  0  0  0  0  0  0  0  0  0
  137.2350  130.2567  118.8860 H   0  0  0  0  0  0  0  0  0  0  0  0
  135.7383  129.8136  119.6829 H   0  0  0  0  0  0  0  0  0  0  0  0
  135.5404  130.9463  117.4067 H   0  0  0  0  0  0  0  0  0  0  0  0
  134.6303  129.4615  117.6496 H   0  0  0  0  0  0  0  0  0  0  0  0
  138.3423  129.6298  116.7761 H   0  0  0  0  0  0  0  0  0  0  0  0
  138.0270  128.2690  115.6952 H   0  0  0  0  0  0  0  0  0  0  0  0
  135.5060  120.1274  116.3665 H   0  0  0  0  0  0  0  0  0  0  0  0
  136.2876  122.3685  116.8076 H   0  0  0  0  0  0  0  0  0  0  0  0
  139.6521  121.6809  114.3935 H   0  0  0  0  0  0  0  0  0  0  0  0
  135.2206  116.9865  114.5219 H   0  0  0  0  0  0  0  0  0  0  0  0
  134.8846  118.6318  114.0391 H   0  0  0  0  0  0  0  0  0  0  0  0
  134.9302  118.2108  115.7343 H   0  0  0  0  0  0  0  0  0  0  0  0
  140.6843  118.7205  112.7033 H   0  0  0  0  0  0  0  0  0  0  0  0
  140.9156  119.6172  114.1850 H   0  0  0  0  0  0  0  0  0  0  0  0
  140.2709  120.4169  112.7716 H   0  0  0  0  0  0  0  0  0  0  0  0
  1 21  1  1
  1  2  1  0
  2  3  1  0
  2 28  1  0
  2 29  1  0
  3  4  1  0
  3 30  1  0
  3 31  1  0
  4 11  1  0
  4  5  1  0
  4 32  1  1
  5  6  1  0
  5 33  1  0
  5 34  1  0
  6  7  1  0
  6  1  1  0
  6 35  1  1
  7  8  1  0
  7  9  1  0
  8 36  1  0
  8 37  1  0
  8 38  1  0
  9 10  1  0
  9 39  1  0
  9 40  1  0
 10  1  1  0
 10 41  1  0
 10 42  1  0
 11 12  1  0
 11 43  1  1
 12 13  1  0
 12 44  1  0
 12 45  1  0
 13 14  1  0
 13 46  1  0
 13 47  1  0
 14 15  1  0
 14 48  1  0
 14 49  1  0
 15 16  2  0
 15 17  1  0
 17 11  1  0
 17 50  1  0
 17 51  1  0
 18 19  2  0
 19 20  1  0
 19 52  1  0
 20 21  2  0
 20 53  1  0
 21 22  1  0
 22 23  2  0
 22 54  1  0
 23 26  1  0
 23 18  1  0
 24 25  1  0
 24 55  1  0
 24 56  1  0
 24 57  1  0
 25 18  1  0
 26 27  1  0
 27 58  1  0
 27 59  1  0
 27 60  1  0
M  END
>  <minimizedAffinity>  (7) 
-8.52764

>  <mol_id>  (7) 
96347

>  <source_index>  (7) 
6

>  <layer>  (7) 
L2

>  <uniprot>  (7) 
P31645

>  <paff>  (7) 
7.3010000000000002

>  <smiles>  (7) 
COc1ccc([C@@]23CC[C@H](C4CCCC(=O)C4)C[C@@H]2N(C)CC3)cc1OC

$$$$
L2:P31645:103500
     RDKit          3D

 55 59  0  0  0  0  0  0  0  0999 V2000
  135.7471  128.6856  118.1097 N   0  0  0  0  0  0  0  0  0  0  0  0
  135.7340  127.9188  116.8559 C   0  0  0  0  0  0  0  0  0  0  0  0
  137.1087  127.8865  116.1451 C   0  0  0  0  0  0  0  0  0  0  0  0
  138.2912  127.6469  116.9856 N   0  0  0  0  0  0  0  0  0  0  0  0
  138.2259  128.4066  118.2445 C   0  0  0  0  0  0  0  0  0  0  0  0
  136.8803  128.3865  119.0026 C   0  0  0  0  0  0  0  0  0  0  0  0
  132.7474  130.7884  121.0568 C   0  0  0  0  0  0  0  0  0  0  0  0
  132.9552  131.9303  120.3119 C   0  0  0  0  0  0  0  0  0  0  0  0
  133.8634  131.7433  119.2129 C   0  0  0  0  0  0  0  0  0  0  0  0
  134.2983  132.6703  118.2398 C   0  0  0  0  0  0  0  0  0  0  0  0
  135.1824  132.2729  117.2421 C   0  0  0  0  0  0  0  0  0  0  0  0
  135.6495  130.9639  117.2030 C   0  0  0  0  0  0  0  0  0  0  0  0
  135.2703  129.9952  118.1518 C   0  0  0  0  0  0  0  0  0  0  0  0
  134.3470  130.4323  119.1521 C   0  0  0  0  0  0  0  0  0  0  0  0
  133.6309  129.4786  120.4121 S   0  0  0  0  0  0  0  0  0  0  0  0
  130.6296  130.1694  121.9933 N   0  0  0  0  0  0  0  0  0  0  0  0
  131.9185  130.5700  122.2299 C   0  0  0  0  0  0  0  0  0  0  0  0
  132.2687  130.7295  123.3972 O   0  0  0  0  0  0  0  0  0  0  0  0
  130.2025  130.2049  121.0818 H   0  0  0  0  0  0  0  0  0  0  0  0
  130.0282  130.1169  122.8044 H   0  0  0  0  0  0  0  0  0  0  0  0
  138.7144  126.2504  117.1096 C   0  0  0  0  0  0  0  0  0  0  0  0
  139.6084  125.6492  116.0150 C   0  0  0  0  0  0  0  0  0  0  0  0
  139.1403  124.2675  115.6134 C   0  0  0  0  0  0  0  0  0  0  0  0
  137.7718  123.9588  115.6012 C   0  0  0  0  0  0  0  0  0  0  0  0
  137.3326  122.6795  115.2470 C   0  0  0  0  0  0  0  0  0  0  0  0
  138.2588  121.6929  114.9049 C   0  0  0  0  0  0  0  0  0  0  0  0
  137.8365  120.3431  114.5292 C   0  0  0  0  0  0  0  0  0  0  0  0
  138.7526  119.4195  114.2091 C   0  0  0  0  0  0  0  0  0  0  0  0
  140.2027  119.7322  114.2255 C   0  0  0  0  0  0  0  0  0  0  0  0
  141.0323  118.8785  113.9318 O   0  0  0  0  0  0  0  0  0  0  0  0
  140.5553  121.0057  114.5814 N   0  0  0  0  0  0  0  0  0  0  0  0
  139.6263  121.9982  114.9219 C   0  0  0  0  0  0  0  0  0  0  0  0
  140.0694  123.2735  115.2741 C   0  0  0  0  0  0  0  0  0  0  0  0
  141.5456  121.2056  114.5875 H   0  0  0  0  0  0  0  0  0  0  0  0
  135.0195  128.3618  116.1940 H   0  0  0  0  0  0  0  0  0  0  0  0
  135.4810  126.9091  117.1039 H   0  0  0  0  0  0  0  0  0  0  0  0
  137.2435  128.8310  115.6606 H   0  0  0  0  0  0  0  0  0  0  0  0
  137.0609  127.0438  115.4874 H   0  0  0  0  0  0  0  0  0  0  0  0
  138.4547  129.4272  118.0186 H   0  0  0  0  0  0  0  0  0  0  0  0
  138.9222  127.9243  118.8983 H   0  0  0  0  0  0  0  0  0  0  0  0
  136.9104  129.1191  119.7819 H   0  0  0  0  0  0  0  0  0  0  0  0
  136.7384  127.4049  119.4042 H   0  0  0  0  0  0  0  0  0  0  0  0
  132.5020  132.8331  120.5231 H   0  0  0  0  0  0  0  0  0  0  0  0
  133.9593  133.6446  118.2691 H   0  0  0  0  0  0  0  0  0  0  0  0
  135.4924  132.9515  116.5290 H   0  0  0  0  0  0  0  0  0  0  0  0
  136.2995  130.6917  116.4491 H   0  0  0  0  0  0  0  0  0  0  0  0
  137.8263  125.6551  117.1527 H   0  0  0  0  0  0  0  0  0  0  0  0
  139.3333  126.2437  117.9824 H   0  0  0  0  0  0  0  0  0  0  0  0
  140.6112  125.5834  116.3823 H   0  0  0  0  0  0  0  0  0  0  0  0
  139.5586  126.2837  115.1549 H   0  0  0  0  0  0  0  0  0  0  0  0
  137.0824  124.6832  115.8562 H   0  0  0  0  0  0  0  0  0  0  0  0
  136.3233  122.4646  115.2385 H   0  0  0  0  0  0  0  0  0  0  0  0
  136.8331  120.1027  114.5108 H   0  0  0  0  0  0  0  0  0  0  0  0
  138.4432  118.4709  113.9457 H   0  0  0  0  0  0  0  0  0  0  0  0
  141.0795  123.4849  115.2849 H   0  0  0  0  0  0  0  0  0  0  0  0
  1  2  1  0
  2  3  1  0
  2 35  1  0
  2 36  1  0
  3  4  1  0
  3 37  1  0
  3 38  1  0
  4 21  1  0
  4  5  1  0
  5  6  1  0
  5 39  1  0
  5 40  1  0
  6  1  1  0
  6 41  1  0
  6 42  1  0
  7  8  2  0
  8  9  1  0
  8 43  1  0
  9 10  2  0
 10 11  1  0
 10 44  1  0
 11 12  2  0
 11 45  1  0
 12 13  1  0
 12 46  1  0
 13  1  1  0
 13 14  2  0
 14 15  1  0
 14  9  1  0
 15  7  1  0
 16 17  1  0
 16 19  1  0
 16 20  1  0
 17 18  2  0
 17  7  1  0
 21 22  1  0
 21 47  1  0
 21 48  1  0
 22 23  1  0
 22 49  1  0
 22 50  1  0
 23 24  2  0
 24 25  1  0
 24 51  1  0
 25 26  2  0
 25 52  1  0
 26 27  1  0
 27 28  2  0
 27 53  1  0
 28 29  1  0
 28 54  1  0
 29 30  2  0
 29 31  1  0
 31 32  1  0
 31 34  1  0
 32 33  2  0
 32 26  1  0
 33 23  1  0
 33 55  1  0
M  END
>  <minimizedAffinity>  (8) 
-10.21244

>  <mol_id>  (8) 
103500

>  <source_index>  (8) 
7

>  <layer>  (8) 
L2

>  <uniprot>  (8) 
P31645

>  <paff>  (8) 
7.3188000000000004

>  <smiles>  (8) 
NC(=O)c1cc2cccc(N3CCN(CCc4ccc5ccc(=O)[nH]c5c4)CC3)c2s1

$$$$
L2:P31645:103879
     RDKit          3D

 54 57  0  0  0  0  0  0  0  0999 V2000
  135.0782  131.8444  118.2527 C   0  0  0  0  0  0  0  0  0  0  0  0
  134.1320  132.8122  118.5925 C   0  0  0  0  0  0  0  0  0  0  0  0
  132.9792  132.4681  119.3114 C   0  0  0  0  0  0  0  0  0  0  0  0
  132.7312  131.1467  119.7040 C   0  0  0  0  0  0  0  0  0  0  0  0
  133.7144  130.1869  119.3727 C   0  0  0  0  0  0  0  0  0  0  0  0
  134.8708  130.5143  118.6521 C   0  0  0  0  0  0  0  0  0  0  0  0
  131.4743  130.7157  120.4996 C   0  0  1  0  0  0  0  0  0  0  0  0
  131.6804  130.6562  122.0405 C   0  0  0  0  0  0  0  0  0  0  0  0
  131.7170  132.0429  122.6760 C   0  0  0  0  0  0  0  0  0  0  0  0
  130.4559  132.8048  122.3498 C   0  0  0  0  0  0  0  0  0  0  0  0
  130.2157  133.8922  122.8730 O   0  0  0  0  0  0  0  0  0  0  0  0
  129.4820  132.1524  121.4018 C   0  0  0  0  0  0  0  0  0  0  0  0
  130.2283  131.6302  120.1632 C   0  0  2  0  0  0  0  0  0  0  0  0
  129.4155  130.7890  119.2611 N   0  0  0  0  0  0  0  0  0  0  0  0
  128.0358  131.1978  119.0623 C   0  0  0  0  0  0  0  0  0  0  0  0
  129.5465  129.4175  119.7377 C   0  0  0  0  0  0  0  0  0  0  0  0
  131.0387  129.3044  120.0096 C   0  0  0  0  0  0  0  0  0  0  0  0
  136.5559  133.4508  117.2813 C   0  0  0  0  0  0  0  0  0  0  0  0
  136.2304  132.0955  117.5505 O   0  0  0  0  0  0  0  0  0  0  0  0
  135.8470  129.6206  118.2920 O   0  0  0  0  0  0  0  0  0  0  0  0
  135.4959  128.4531  117.5648 C   0  0  0  0  0  0  0  0  0  0  0  0
  136.0477  128.4527  116.1418 C   0  0  0  0  0  0  0  0  0  0  0  0
  136.0828  126.9792  115.7569 C   0  0  0  0  0  0  0  0  0  0  0  0
  136.2280  126.2071  117.0683 C   0  0  0  0  0  0  0  0  0  0  0  0
  136.2241  127.2554  118.1736 C   0  0  0  0  0  0  0  0  0  0  0  0
  134.2830  133.7935  118.3109 H   0  0  0  0  0  0  0  0  0  0  0  0
  132.2986  133.2040  119.5567 H   0  0  0  0  0  0  0  0  0  0  0  0
  133.5756  129.2092  119.6725 H   0  0  0  0  0  0  0  0  0  0  0  0
  132.6062  130.1601  122.2445 H   0  0  0  0  0  0  0  0  0  0  0  0
  130.8511  130.1264  122.4605 H   0  0  0  0  0  0  0  0  0  0  0  0
  132.5615  132.5812  122.2992 H   0  0  0  0  0  0  0  0  0  0  0  0
  131.7929  131.9360  123.7379 H   0  0  0  0  0  0  0  0  0  0  0  0
  128.7482  132.8694  121.0979 H   0  0  0  0  0  0  0  0  0  0  0  0
  129.0036  131.3331  121.8965 H   0  0  0  0  0  0  0  0  0  0  0  0
  130.5110  132.5516  119.6984 H   0  0  0  0  0  0  0  0  0  0  0  0
  128.0101  132.2091  118.7139 H   0  0  0  0  0  0  0  0  0  0  0  0
  127.5056  131.1262  119.9889 H   0  0  0  0  0  0  0  0  0  0  0  0
  127.5754  130.5591  118.3377 H   0  0  0  0  0  0  0  0  0  0  0  0
  129.2354  128.7173  118.9908 H   0  0  0  0  0  0  0  0  0  0  0  0
  128.9398  129.2033  120.5926 H   0  0  0  0  0  0  0  0  0  0  0  0
  131.5636  129.0394  119.1157 H   0  0  0  0  0  0  0  0  0  0  0  0
  131.2564  128.5461  120.7325 H   0  0  0  0  0  0  0  0  0  0  0  0
  137.4726  133.4950  116.7312 H   0  0  0  0  0  0  0  0  0  0  0  0
  136.6678  133.9808  118.2041 H   0  0  0  0  0  0  0  0  0  0  0  0
  135.7727  133.8982  116.7057 H   0  0  0  0  0  0  0  0  0  0  0  0
  134.4268  128.4152  117.5862 H   0  0  0  0  0  0  0  0  0  0  0  0
  137.0302  128.8756  116.1153 H   0  0  0  0  0  0  0  0  0  0  0  0
  135.4541  129.0381  115.4711 H   0  0  0  0  0  0  0  0  0  0  0  0
  136.9156  126.7820  115.1147 H   0  0  0  0  0  0  0  0  0  0  0  0
  135.1994  126.6905  115.2267 H   0  0  0  0  0  0  0  0  0  0  0  0
  137.1473  125.6597  117.0779 H   0  0  0  0  0  0  0  0  0  0  0  0
  135.4364  125.4987  117.1964 H   0  0  0  0  0  0  0  0  0  0  0  0
  137.2242  127.5201  118.4469 H   0  0  0  0  0  0  0  0  0  0  0  0
  135.7507  126.9029  119.0661 H   0  0  0  0  0  0  0  0  0  0  0  0
  1  2  2  0
  2  3  1  0
  2 26  1  0
  3  4  2  0
  3 27  1  0
  4  5  1  0
  5  6  2  0
  5 28  1  0
  6 20  1  0
  6  1  1  0
  7  4  1  6
  7  8  1  0
  8  9  1  0
  8 29  1  0
  8 30  1  0
  9 10  1  0
  9 31  1  0
  9 32  1  0
 10 11  2  0
 10 12  1  0
 12 13  1  0
 12 33  1  0
 12 34  1  0
 13 14  1  0
 13  7  1  0
 13 35  1  6
 14 15  1  0
 14 16  1  0
 15 36  1  0
 15 37  1  0
 15 38  1  0
 16 17  1  0
 16 39  1  0
 16 40  1  0
 17  7  1  0
 17 41  1  0
 17 42  1  0
 18 19  1  0
 18 43  1  0
 18 44  1  0
 18 45  1  0
 19  1  1  0
 20 21  1  0
 21 22  1  0
 21 46  1  0
 22 23  1  0
 22 47  1  0
 22 48  1  0
 23 24  1  0
 23 49  1  0
 23 50  1  0
 24 25  1  0
 24 51  1  0
 24 52  1  0
 25 21  1  0
 25 53  1  0
 25 54  1  0
M  END
>  <minimizedAffinity>  (9) 
-7.59577

>  <mol_id>  (9) 
103879

>  <source_index>  (9) 
8

>  <layer>  (9) 
L2

>  <uniprot>  (9) 
P31645

>  <paff>  (9) 
6.0968999999999998

>  <smiles>  (9) 
COc1ccc([C@@]23CCC(=O)C[C@@H]2N(C)CC3)cc1OC1CCCC1

$$$$
L2:P31645:122886
     RDKit          3D

 44 46  0  0  0  0  0  0  0  0999 V2000
  138.2106  127.1743  116.3222 C   0  0  2  0  0  0  0  0  0  0  0  0
  136.7649  127.2565  115.7394 C   0  0  0  0  0  0  0  0  0  0  0  0
  135.9298  128.3849  116.3332 C   0  0  0  0  0  0  0  0  0  0  0  0
  135.7908  128.1846  117.8241 C   0  0  0  0  0  0  0  0  0  0  0  0
  134.7951  128.5785  118.4329 O   0  0  0  0  0  0  0  0  0  0  0  0
  136.9023  127.4466  118.5349 C   0  0  0  0  0  0  0  0  0  0  0  0
  138.2464  127.6312  117.8259 C   0  0  2  0  0  0  0  0  0  0  0  0
  138.6655  129.0477  117.7634 N   0  0  0  0  0  0  0  0  0  0  0  0
  139.1447  129.5750  119.0382 C   0  0  0  0  0  0  0  0  0  0  0  0
  139.7195  129.0718  116.7535 C   0  0  0  0  0  0  0  0  0  0  0  0
  139.1250  128.2355  115.6333 C   0  0  0  0  0  0  0  0  0  0  0  0
  139.7557  123.1545  115.5034 C   0  0  0  0  0  0  0  0  0  0  0  0
  138.4040  123.4410  115.3065 C   0  0  0  0  0  0  0  0  0  0  0  0
  137.8969  124.7201  115.5692 C   0  0  0  0  0  0  0  0  0  0  0  0
  138.7219  125.7455  116.0493 C   0  0  0  0  0  0  0  0  0  0  0  0
  140.0921  125.4479  116.2168 C   0  0  0  0  0  0  0  0  0  0  0  0
  140.6117  124.1708  115.9598 C   0  0  0  0  0  0  0  0  0  0  0  0
  139.6172  120.7756  115.6822 C   0  0  0  0  0  0  0  0  0  0  0  0
  140.3338  121.9314  115.2735 O   0  0  0  0  0  0  0  0  0  0  0  0
  141.9311  123.8233  116.1143 O   0  0  0  0  0  0  0  0  0  0  0  0
  142.7258  124.6081  116.9909 C   0  0  0  0  0  0  0  0  0  0  0  0
  136.2682  126.3292  115.9352 H   0  0  0  0  0  0  0  0  0  0  0  0
  136.8600  127.4546  114.6922 H   0  0  0  0  0  0  0  0  0  0  0  0
  134.9595  128.3847  115.8822 H   0  0  0  0  0  0  0  0  0  0  0  0
  136.4132  129.3207  116.1447 H   0  0  0  0  0  0  0  0  0  0  0  0
  136.6646  126.4037  118.5619 H   0  0  0  0  0  0  0  0  0  0  0  0
  136.9888  127.8452  119.5241 H   0  0  0  0  0  0  0  0  0  0  0  0
  138.9181  127.0362  118.4087 H   0  0  0  0  0  0  0  0  0  0  0  0
  138.3526  129.5449  119.7570 H   0  0  0  0  0  0  0  0  0  0  0  0
  139.4688  130.5862  118.9067 H   0  0  0  0  0  0  0  0  0  0  0  0
  139.9638  128.9802  119.3849 H   0  0  0  0  0  0  0  0  0  0  0  0
  140.6214  128.6330  117.1261 H   0  0  0  0  0  0  0  0  0  0  0  0
  139.9929  130.0600  116.4475 H   0  0  0  0  0  0  0  0  0  0  0  0
  139.9019  127.7520  115.0786 H   0  0  0  0  0  0  0  0  0  0  0  0
  138.5716  128.8405  114.9458 H   0  0  0  0  0  0  0  0  0  0  0  0
  137.7707  122.7019  114.9634 H   0  0  0  0  0  0  0  0  0  0  0  0
  136.8959  124.9108  115.4059 H   0  0  0  0  0  0  0  0  0  0  0  0
  140.7303  126.1926  116.5380 H   0  0  0  0  0  0  0  0  0  0  0  0
  140.1843  119.9007  115.4416 H   0  0  0  0  0  0  0  0  0  0  0  0
  138.6760  120.7414  115.1744 H   0  0  0  0  0  0  0  0  0  0  0  0
  139.4513  120.8138  116.7386 H   0  0  0  0  0  0  0  0  0  0  0  0
  143.7234  124.2216  117.0102 H   0  0  0  0  0  0  0  0  0  0  0  0
  142.3106  124.5730  117.9764 H   0  0  0  0  0  0  0  0  0  0  0  0
  142.7423  125.6211  116.6467 H   0  0  0  0  0  0  0  0  0  0  0  0
  1 15  1  1
  1  2  1  0
  2  3  1  0
  2 22  1  0
  2 23  1  0
  3  4  1  0
  3 24  1  0
  3 25  1  0
  4  5  2  0
  4  6  1  0
  6  7  1  0
  6 26  1  0
  6 27  1  0
  7  8  1  0
  7  1  1  0
  7 28  1  1
  8  9  1  0
  8 10  1  0
  9 29  1  0
  9 30  1  0
  9 31  1  0
 10 11  1  0
 10 32  1  0
 10 33  1  0
 11  1  1  0
 11 34  1  0
 11 35  1  0
 12 13  2  0
 13 14  1  0
 13 36  1  0
 14 15  2  0
 14 37  1  0
 15 16  1  0
 16 17  2  0
 16 38  1  0
 17 20  1  0
 17 12  1  0
 18 19  1  0
 18 39  1  0
 18 40  1  0
 18 41  1  0
 19 12  1  0
 20 21  1  0
 21 42  1  0
 21 43  1  0
 21 44  1  0
M  END
>  <minimizedAffinity>  (10) 
-7.27072

>  <mol_id>  (10) 
122886

>  <source_index>  (10) 
9

>  <layer>  (10) 
L2

>  <uniprot>  (10) 
P31645

>  <paff>  (10) 
8.8538999999999994

>  <smiles>  (10) 
COc1ccc([C@@]23CCC(=O)C[C@@H]2N(C)CC3)cc1OC

$$$$
