L2:P31645:2227
     RDKit          3D

 47 49  0  0  0  0  0  0  0  0999 V2000
  130.0368  130.0306  121.4912 N   0  0  0  0  0  0  0  0  0  0  0  0
  129.8574  129.7698  120.0589 C   0  0  0  0  0  0  0  0  0  0  0  0
  131.2500  129.8047  119.4517 C   0  0  0  0  0  0  0  0  0  0  0  0
  132.0220  130.8224  120.3152 C   0  0  1  0  0  0  0  0  0  0  0  0
  131.6214  132.2786  119.9167 C   0  0  0  0  0  0  0  0  0  0  0  0
  132.0536  133.3054  120.9529 C   0  0  0  0  0  0  0  0  0  0  0  0
  131.4379  132.9512  122.2814 C   0  0  0  0  0  0  0  0  0  0  0  0
  130.8323  133.7830  122.9555 O   0  0  0  0  0  0  0  0  0  0  0  0
  131.6968  131.5572  122.7895 C   0  0  0  0  0  0  0  0  0  0  0  0
  131.4319  130.4834  121.7232 C   0  0  1  0  0  0  0  0  0  0  0  0
  133.5319  130.6073  120.1086 C   0  0  0  0  0  0  0  0  0  0  0  0
  134.3123  129.7826  120.9274 C   0  0  0  0  0  0  0  0  0  0  0  0
  135.6859  129.6196  120.7028 C   0  0  0  0  0  0  0  0  0  0  0  0
  136.3191  130.2722  119.6449 C   0  0  0  0  0  0  0  0  0  0  0  0
  135.5593  131.0928  118.7956 C   0  0  0  0  0  0  0  0  0  0  0  0
  134.1849  131.2461  119.0310 C   0  0  0  0  0  0  0  0  0  0  0  0
  137.6565  130.1707  119.3555 O   0  0  0  0  0  0  0  0  0  0  0  0
  138.1318  128.9278  118.8598 C   0  0  0  0  0  0  0  0  0  0  0  0
  136.2441  131.6960  117.7696 O   0  0  0  0  0  0  0  0  0  0  0  0
  136.0957  133.0982  117.6050 C   0  0  0  0  0  0  0  0  0  0  0  0
  127.5826  130.1334  121.8841 C   0  0  0  0  0  0  0  0  0  0  0  0
  128.9452  130.7905  122.0970 C   0  0  0  0  0  0  0  0  0  0  0  0
  129.2400  130.5241  119.6177 H   0  0  0  0  0  0  0  0  0  0  0  0
  129.3777  128.8287  119.8880 H   0  0  0  0  0  0  0  0  0  0  0  0
  131.2101  130.1269  118.4322 H   0  0  0  0  0  0  0  0  0  0  0  0
  131.7152  128.8411  119.4447 H   0  0  0  0  0  0  0  0  0  0  0  0
  130.5577  132.3251  119.8103 H   0  0  0  0  0  0  0  0  0  0  0  0
  132.1189  132.5133  118.9989 H   0  0  0  0  0  0  0  0  0  0  0  0
  131.7242  134.2782  120.6529 H   0  0  0  0  0  0  0  0  0  0  0  0
  133.1202  133.3063  121.0377 H   0  0  0  0  0  0  0  0  0  0  0  0
  131.0577  131.3733  123.6277 H   0  0  0  0  0  0  0  0  0  0  0  0
  132.7299  131.4971  123.0616 H   0  0  0  0  0  0  0  0  0  0  0  0
  131.9466  129.6767  122.2020 H   0  0  0  0  0  0  0  0  0  0  0  0
  133.8665  129.2840  121.7133 H   0  0  0  0  0  0  0  0  0  0  0  0
  136.2357  129.0094  121.3276 H   0  0  0  0  0  0  0  0  0  0  0  0
  133.6332  131.8447  118.3967 H   0  0  0  0  0  0  0  0  0  0  0  0
  139.1844  128.9946  118.6798 H   0  0  0  0  0  0  0  0  0  0  0  0
  137.6279  128.6921  117.9458 H   0  0  0  0  0  0  0  0  0  0  0  0
  137.9412  128.1601  119.5803 H   0  0  0  0  0  0  0  0  0  0  0  0
  136.6838  133.4238  116.7725 H   0  0  0  0  0  0  0  0  0  0  0  0
  136.4252  133.5983  118.4917 H   0  0  0  0  0  0  0  0  0  0  0  0
  135.0663  133.3294  117.4267 H   0  0  0  0  0  0  0  0  0  0  0  0
  126.8233  130.7292  122.3460 H   0  0  0  0  0  0  0  0  0  0  0  0
  127.5853  129.1569  122.3216 H   0  0  0  0  0  0  0  0  0  0  0  0
  127.3849  130.0539  120.8355 H   0  0  0  0  0  0  0  0  0  0  0  0
  129.1262  130.8711  123.1485 H   0  0  0  0  0  0  0  0  0  0  0  0
  128.9188  131.7510  121.6261 H   0  0  0  0  0  0  0  0  0  0  0  0
  1  2  1  0
  2  3  1  0
  2 23  1  0
  2 24  1  0
  3  4  1  0
  3 25  1  0
  3 26  1  0
  4 11  1  1
  4  5  1  0
  5  6  1  0
  5 27  1  0
  5 28  1  0
  6  7  1  0
  6 29  1  0
  6 30  1  0
  7  8  2  0
  7  9  1  0
  9 10  1  0
  9 31  1  0
  9 32  1  0
 10  1  1  0
 10  4  1  0
 10 33  1  1
 11 12  2  0
 12 13  1  0
 12 34  1  0
 13 14  2  0
 13 35  1  0
 14 17  1  0
 14 15  1  0
 15 19  1  0
 15 16  2  0
 16 11  1  0
 16 36  1  0
 17 18  1  0
 18 37  1  0
 18 38  1  0
 18 39  1  0
 19 20  1  0
 20 40  1  0
 20 41  1  0
 20 42  1  0
 21 22  1  0
 21 43  1  0
 21 44  1  0
 21 45  1  0
 22  1  1  0
 22 46  1  0
 22 47  1  0
M  END
>  <minimizedAffinity>  (1) 
-7.36637

>  <mol_id>  (1) 
2227

>  <source_index>  (1) 
0

>  <layer>  (1) 
L2

>  <uniprot>  (1) 
P31645

>  <paff>  (1) 
7.3010000000000002

>  <smiles>  (1) 
CCN1CC[C@@]2(c3ccc(OC)c(OC)c3)CCC(=O)C[C@@H]12

$$$$
L2:P31645:24100
     RDKit          3D

 50 52  0  0  0  0  0  0  0  0999 V2000
  140.4652  125.6230  116.2769 C   0  0  0  0  0  0  0  0  0  0  0  0
  139.8715  126.8911  116.3874 C   0  0  0  0  0  0  0  0  0  0  0  0
  138.5125  127.1202  116.0767 C   0  0  0  0  0  0  0  0  0  0  0  0
  137.7534  126.0142  115.6719 C   0  0  0  0  0  0  0  0  0  0  0  0
  138.3260  124.7418  115.5712 C   0  0  0  0  0  0  0  0  0  0  0  0
  139.6684  124.5400  115.8950 C   0  0  0  0  0  0  0  0  0  0  0  0
  137.9343  128.5372  116.2153 C   0  0  1  0  0  0  0  0  0  0  0  0
  136.4446  128.5771  115.7435 C   0  0  0  0  0  0  0  0  0  0  0  0
  135.4954  127.9411  116.7455 C   0  0  0  0  0  0  0  0  0  0  0  0
  135.6342  128.6203  118.0832 C   0  0  0  0  0  0  0  0  0  0  0  0
  134.6467  128.9326  118.7492 O   0  0  0  0  0  0  0  0  0  0  0  0
  137.0289  128.7395  118.6435 C   0  0  0  0  0  0  0  0  0  0  0  0
  138.0574  129.2209  117.6131 C   0  0  2  0  0  0  0  0  0  0  0  0
  137.9241  130.6496  117.2608 N   0  0  0  0  0  0  0  0  0  0  0  0
  138.2866  131.5730  118.3305 C   0  0  0  0  0  0  0  0  0  0  0  0
  138.7678  130.8471  116.0772 C   0  0  0  0  0  0  0  0  0  0  0  0
  138.7609  129.5113  115.3371 C   0  0  0  0  0  0  0  0  0  0  0  0
  142.0721  124.8750  118.3877 C   0  0  0  0  0  0  0  0  0  0  0  0
  142.2026  125.4908  116.6878 S   0  0  0  0  0  0  0  0  0  0  0  0
  140.2135  123.2888  115.7723 O   0  0  0  0  0  0  0  0  0  0  0  0
  139.3623  122.2500  116.2849 C   0  0  0  0  0  0  0  0  0  0  0  0
  139.6001  122.1404  117.7876 C   0  0  0  0  0  0  0  0  0  0  0  0
  139.7440  120.9481  115.5886 C   0  0  0  0  0  0  0  0  0  0  0  0
  140.4490  127.6843  116.7072 H   0  0  0  0  0  0  0  0  0  0  0  0
  136.7548  126.1404  115.4441 H   0  0  0  0  0  0  0  0  0  0  0  0
  137.7508  123.9455  115.2548 H   0  0  0  0  0  0  0  0  0  0  0  0
  136.3652  128.0511  114.8151 H   0  0  0  0  0  0  0  0  0  0  0  0
  136.1653  129.6049  115.6408 H   0  0  0  0  0  0  0  0  0  0  0  0
  135.7314  126.9025  116.8484 H   0  0  0  0  0  0  0  0  0  0  0  0
  134.4896  128.0498  116.3971 H   0  0  0  0  0  0  0  0  0  0  0  0
  137.3333  127.7792  119.0040 H   0  0  0  0  0  0  0  0  0  0  0  0
  136.9956  129.4711  119.4236 H   0  0  0  0  0  0  0  0  0  0  0  0
  138.9722  128.9867  118.1163 H   0  0  0  0  0  0  0  0  0  0  0  0
  137.6546  131.4038  119.1772 H   0  0  0  0  0  0  0  0  0  0  0  0
  138.1640  132.5797  117.9894 H   0  0  0  0  0  0  0  0  0  0  0  0
  139.3071  131.4127  118.6095 H   0  0  0  0  0  0  0  0  0  0  0  0
  139.7640  131.1071  116.3684 H   0  0  0  0  0  0  0  0  0  0  0  0
  138.4033  131.6420  115.4606 H   0  0  0  0  0  0  0  0  0  0  0  0
  139.7601  129.1474  115.2185 H   0  0  0  0  0  0  0  0  0  0  0  0
  138.3392  129.6089  114.3585 H   0  0  0  0  0  0  0  0  0  0  0  0
  143.0526  124.7375  118.7935 H   0  0  0  0  0  0  0  0  0  0  0  0
  141.5511  123.9404  118.3895 H   0  0  0  0  0  0  0  0  0  0  0  0
  141.5356  125.5836  118.9835 H   0  0  0  0  0  0  0  0  0  0  0  0
  138.3284  122.4602  116.1068 H   0  0  0  0  0  0  0  0  0  0  0  0
  140.6331  121.9302  117.9708 H   0  0  0  0  0  0  0  0  0  0  0  0
  138.9990  121.3505  118.1871 H   0  0  0  0  0  0  0  0  0  0  0  0
  139.3349  123.0637  118.2589 H   0  0  0  0  0  0  0  0  0  0  0  0
  140.7779  120.7381  115.7668 H   0  0  0  0  0  0  0  0  0  0  0  0
  139.5757  121.0438  114.5363 H   0  0  0  0  0  0  0  0  0  0  0  0
  139.1461  120.1488  115.9741 H   0  0  0  0  0  0  0  0  0  0  0  0
  1  2  2  0
  2  3  1  0
  2 24  1  0
  3  4  2  0
  4  5  1  0
  4 25  1  0
  5  6  2  0
  5 26  1  0
  6 20  1  0
  6  1  1  0
  7  3  1  1
  7  8  1  0
  8  9  1  0
  8 27  1  0
  8 28  1  0
  9 10  1  0
  9 29  1  0
  9 30  1  0
 10 11  2  0
 10 12  1  0
 12 13  1  0
 12 31  1  0
 12 32  1  0
 13 14  1  0
 13  7  1  0
 13 33  1  1
 14 15  1  0
 14 16  1  0
 15 34  1  0
 15 35  1  0
 15 36  1  0
 16 17  1  0
 16 37  1  0
 16 38  1  0
 17  7  1  0
 17 39  1  0
 17 40  1  0
 18 19  1  0
 18 41  1  0
 18 42  1  0
 18 43  1  0
 19  1  1  0
 20 21  1  0
 21 22  1  0
 21 23  1  0
 21 44  1  0
 22 45  1  0
 22 46  1  0
 22 47  1  0
 23 48  1  0
 23 49  1  0
 23 50  1  0
M  END
>  <minimizedAffinity>  (2) 
-7.44552

>  <mol_id>  (2) 
24100

>  <source_index>  (2) 
1

>  <layer>  (2) 
L2

>  <uniprot>  (2) 
P31645

>  <paff>  (2) 
6.5228999999999999

>  <smiles>  (2) 
CSc1cc([C@@]23CCC(=O)C[C@@H]2N(C)CC3)ccc1OC(C)C

$$$$
L2:P31645:33467
     RDKit          3D

 46 48  0  0  0  0  0  0  0  0999 V2000
  131.7803  131.3173  120.5670 C   0  0  2  0  0  0  0  0  0  0  0  0
  130.7867  130.4135  119.7801 C   0  0  0  0  0  0  0  0  0  0  0  0
  129.3087  130.6370  120.0761 C   0  0  0  0  0  0  0  0  0  0  0  0
  129.1172  130.5922  121.5694 C   0  0  0  0  0  0  0  0  0  0  0  0
  128.3801  129.7496  122.2267 N   0  0  0  0  0  0  0  0  0  0  0  0
  127.7481  128.8389  121.3776 O   0  0  0  0  0  0  0  0  0  0  0  0
  129.8785  131.6383  122.3350 C   0  0  0  0  0  0  0  0  0  0  0  0
  131.3843  131.4460  122.0794 C   0  0  2  0  0  0  0  0  0  0  0  0
  132.1884  132.6100  122.4915 N   0  0  0  0  0  0  0  0  0  0  0  0
  131.9189  133.1644  123.8041 C   0  0  0  0  0  0  0  0  0  0  0  0
  132.1305  133.5924  121.4072 C   0  0  0  0  0  0  0  0  0  0  0  0
  131.7279  132.8073  120.1515 C   0  0  0  0  0  0  0  0  0  0  0  0
  127.2504  128.2789  122.0027 H   0  0  0  0  0  0  0  0  0  0  0  0
  135.8280  129.7396  119.8480 C   0  0  0  0  0  0  0  0  0  0  0  0
  134.9956  129.1799  120.8168 C   0  0  0  0  0  0  0  0  0  0  0  0
  133.7092  129.6888  121.0256 C   0  0  0  0  0  0  0  0  0  0  0  0
  133.2128  130.7756  120.2816 C   0  0  0  0  0  0  0  0  0  0  0  0
  134.0639  131.3235  119.3052 C   0  0  0  0  0  0  0  0  0  0  0  0
  135.3539  130.8155  119.0776 C   0  0  0  0  0  0  0  0  0  0  0  0
  137.2446  128.0471  118.9348 C   0  0  0  0  0  0  0  0  0  0  0  0
  137.1012  129.3078  119.5717 O   0  0  0  0  0  0  0  0  0  0  0  0
  136.2254  131.3115  118.1370 O   0  0  0  0  0  0  0  0  0  0  0  0
  135.8258  132.4694  117.4183 C   0  0  0  0  0  0  0  0  0  0  0  0
  131.0171  129.3943  120.0106 H   0  0  0  0  0  0  0  0  0  0  0  0
  130.9178  130.6673  118.7489 H   0  0  0  0  0  0  0  0  0  0  0  0
  128.7260  129.8685  119.6127 H   0  0  0  0  0  0  0  0  0  0  0  0
  128.9931  131.5840  119.6907 H   0  0  0  0  0  0  0  0  0  0  0  0
  129.6758  131.5367  123.3807 H   0  0  0  0  0  0  0  0  0  0  0  0
  129.5778  132.6135  122.0134 H   0  0  0  0  0  0  0  0  0  0  0  0
  131.5774  130.5525  122.6356 H   0  0  0  0  0  0  0  0  0  0  0  0
  131.9797  132.3885  124.5383 H   0  0  0  0  0  0  0  0  0  0  0  0
  130.9377  133.5911  123.8165 H   0  0  0  0  0  0  0  0  0  0  0  0
  132.6404  133.9227  124.0260 H   0  0  0  0  0  0  0  0  0  0  0  0
  133.0872  134.0512  121.2688 H   0  0  0  0  0  0  0  0  0  0  0  0
  131.4333  134.3751  121.6222 H   0  0  0  0  0  0  0  0  0  0  0  0
  132.4150  132.9983  119.3538 H   0  0  0  0  0  0  0  0  0  0  0  0
  130.7578  133.0892  119.7988 H   0  0  0  0  0  0  0  0  0  0  0  0
  135.3307  128.3851  121.3834 H   0  0  0  0  0  0  0  0  0  0  0  0
  133.1083  129.2558  121.7442 H   0  0  0  0  0  0  0  0  0  0  0  0
  133.7317  132.1207  118.7403 H   0  0  0  0  0  0  0  0  0  0  0  0
  138.2834  127.8407  118.7823 H   0  0  0  0  0  0  0  0  0  0  0  0
  136.7422  128.0655  117.9903 H   0  0  0  0  0  0  0  0  0  0  0  0
  136.8164  127.2850  119.5518 H   0  0  0  0  0  0  0  0  0  0  0  0
  136.5943  132.7421  116.7256 H   0  0  0  0  0  0  0  0  0  0  0  0
  135.6606  133.2749  118.1030 H   0  0  0  0  0  0  0  0  0  0  0  0
  134.9214  132.2636  116.8848 H   0  0  0  0  0  0  0  0  0  0  0  0
  1 17  1  1
  1  2  1  0
  2  3  1  0
  2 24  1  0
  2 25  1  0
  3  4  1  0
  3 26  1  0
  3 27  1  0
  4  5  2  0
  4  7  1  0
  5  6  1  0
  6 13  1  0
  7  8  1  0
  7 28  1  0
  7 29  1  0
  8  9  1  0
  8  1  1  0
  8 30  1  1
  9 10  1  0
  9 11  1  0
 10 31  1  0
 10 32  1  0
 10 33  1  0
 11 12  1  0
 11 34  1  0
 11 35  1  0
 12  1  1  0
 12 36  1  0
 12 37  1  0
 14 15  2  0
 15 16  1  0
 15 38  1  0
 16 17  2  0
 16 39  1  0
 17 18  1  0
 18 19  2  0
 18 40  1  0
 19 22  1  0
 19 14  1  0
 20 21  1  0
 20 41  1  0
 20 42  1  0
 20 43  1  0
 21 14  1  0
 22 23  1  0
 23 44  1  0
 23 45  1  0
 23 46  1  0
M  END
>  <minimizedAffinity>  (3) 
-7.76673

>  <mol_id>  (3) 
33467

>  <source_index>  (3) 
2

>  <layer>  (3) 
L2

>  <uniprot>  (3) 
P31645

>  <paff>  (3) 
7.3010000000000002

>  <smiles>  (3) 
COc3ccc([C@@]12CC/C(=N\O)C[C@@H]1N(C)CC2)cc3OC

$$$$
L2:P31645:67792
     RDKit          3D

 51 54  0  0  0  0  0  0  0  0999 V2000
  139.5962  124.5209  115.6291 C   0  0  0  0  0  0  0  0  0  0  0  0
  139.3172  125.8689  115.9045 C   0  0  0  0  0  0  0  0  0  0  0  0
  137.9967  126.3579  116.0055 C   0  0  0  0  0  0  0  0  0  0  0  0
  136.9631  125.4386  115.7708 C   0  0  0  0  0  0  0  0  0  0  0  0
  137.2269  124.0910  115.4920 C   0  0  0  0  0  0  0  0  0  0  0  0
  138.5379  123.6209  115.4252 C   0  0  0  0  0  0  0  0  0  0  0  0
  137.7254  127.8538  116.2955 C   0  0  1  0  0  0  0  0  0  0  0  0
  136.3375  128.3327  115.7611 C   0  0  0  0  0  0  0  0  0  0  0  0
  135.8715  129.6546  116.3652 C   0  0  0  0  0  0  0  0  0  0  0  0
  135.7019  129.4883  117.8560 C   0  0  0  0  0  0  0  0  0  0  0  0
  134.8916  130.1670  118.4879 O   0  0  0  0  0  0  0  0  0  0  0  0
  136.5336  128.4234  118.5314 C   0  0  0  0  0  0  0  0  0  0  0  0
  137.8752  128.2170  117.8218 C   0  0  2  0  0  0  0  0  0  0  0  0
  138.7095  129.4377  117.8210 N   0  0  0  0  0  0  0  0  0  0  0  0
  139.3618  129.7017  119.0998 C   0  0  0  0  0  0  0  0  0  0  0  0
  139.6886  129.2474  116.7520 C   0  0  0  0  0  0  0  0  0  0  0  0
  138.8442  128.6964  115.6156 C   0  0  0  0  0  0  0  0  0  0  0  0
  141.6594  123.9528  116.7016 C   0  0  0  0  0  0  0  0  0  0  0  0
  140.8608  123.9950  115.5288 O   0  0  0  0  0  0  0  0  0  0  0  0
  138.8891  122.3217  115.1605 O   0  0  0  0  0  0  0  0  0  0  0  0
  138.0081  121.5439  114.3564 C   0  0  0  0  0  0  0  0  0  0  0  0
  138.1577  120.1085  114.7613 C   0  0  0  0  0  0  0  0  0  0  0  0
  137.6230  119.0028  113.8871 C   0  0  0  0  0  0  0  0  0  0  0  0
  136.9593  119.3076  115.2026 C   0  0  0  0  0  0  0  0  0  0  0  0
  140.1034  126.5241  116.0375 H   0  0  0  0  0  0  0  0  0  0  0  0
  135.9840  125.7631  115.8043 H   0  0  0  0  0  0  0  0  0  0  0  0
  136.4424  123.4393  115.3344 H   0  0  0  0  0  0  0  0  0  0  0  0
  135.6101  127.5818  115.9891 H   0  0  0  0  0  0  0  0  0  0  0  0
  136.4447  128.4901  114.7082 H   0  0  0  0  0  0  0  0  0  0  0  0
  134.9367  129.9376  115.9283 H   0  0  0  0  0  0  0  0  0  0  0  0
  136.5986  130.4148  116.1693 H   0  0  0  0  0  0  0  0  0  0  0  0
  135.9907  127.5014  118.5216 H   0  0  0  0  0  0  0  0  0  0  0  0
  136.7320  128.7411  119.5337 H   0  0  0  0  0  0  0  0  0  0  0  0
  138.3208  127.4173  118.3758 H   0  0  0  0  0  0  0  0  0  0  0  0
  138.6189  129.8357  119.8581 H   0  0  0  0  0  0  0  0  0  0  0  0
  139.9552  130.5886  119.0211 H   0  0  0  0  0  0  0  0  0  0  0  0
  139.9894  128.8743  119.3576 H   0  0  0  0  0  0  0  0  0  0  0  0
  140.4458  128.5496  117.0428 H   0  0  0  0  0  0  0  0  0  0  0  0
  140.2131  130.1436  116.4938 H   0  0  0  0  0  0  0  0  0  0  0  0
  139.4383  128.0798  114.9738 H   0  0  0  0  0  0  0  0  0  0  0  0
  138.4375  129.4787  115.0093 H   0  0  0  0  0  0  0  0  0  0  0  0
  142.6105  123.5207  116.4701 H   0  0  0  0  0  0  0  0  0  0  0  0
  141.1697  123.3597  117.4454 H   0  0  0  0  0  0  0  0  0  0  0  0
  141.8000  124.9463  117.0733 H   0  0  0  0  0  0  0  0  0  0  0  0
  138.2628  121.6583  113.3235 H   0  0  0  0  0  0  0  0  0  0  0  0
  136.9970  121.8657  114.4944 H   0  0  0  0  0  0  0  0  0  0  0  0
  139.1112  120.3429  115.1866 H   0  0  0  0  0  0  0  0  0  0  0  0
  138.1819  118.0983  113.7669 H   0  0  0  0  0  0  0  0  0  0  0  0
  137.2931  118.9341  112.8716 H   0  0  0  0  0  0  0  0  0  0  0  0
  137.0464  118.6198  116.0176 H   0  0  0  0  0  0  0  0  0  0  0  0
  135.9622  119.5453  115.5094 H   0  0  0  0  0  0  0  0  0  0  0  0
  1  2  2  0
  2  3  1  0
  2 25  1  0
  3  4  2  0
  4  5  1  0
  4 26  1  0
  5  6  2  0
  5 27  1  0
  6 20  1  0
  6  1  1  0
  7  3  1  1
  7  8  1  0
  8  9  1  0
  8 28  1  0
  8 29  1  0
  9 10  1  0
  9 30  1  0
  9 31  1  0
 10 11  2  0
 10 12  1  0
 12 13  1  0
 12 32  1  0
 12 33  1  0
 13 14  1  0
 13  7  1  0
 13 34  1  1
 14 15  1  0
 14 16  1  0
 15 35  1  0
 15 36  1  0
 15 37  1  0
 16 17  1  0
 16 38  1  0
 16 39  1  0
 17  7  1  0
 17 40  1  0
 17 41  1  0
 18 19  1  0
 18 42  1  0
 18 43  1  0
 18 44  1  0
 19  1  1  0
 20 21  1  0
 21 22  1  0
 21 45  1  0
 21 46  1  0
 22 23  1  0
 22 47  1  0
 23 24  1  0
 23 48  1  0
 23 49  1  0
 24 22  1  0
 24 50  1  0
 24 51  1  0
M  END
>  <minimizedAffinity>  (4) 
-8.03607

>  <mol_id>  (4) 
67792

>  <source_index>  (4) 
3

>  <layer>  (4) 
L2

>  <uniprot>  (4) 
P31645

>  <paff>  (4) 
6.0457999999999998

>  <smiles>  (4) 
COc1cc([C@@]23CCC(=O)C[C@@H]2N(C)CC3)ccc1OCC1CC1

$$$$
L2:P31645:76063
     RDKit          3D

 47 49  0  0  0  0  0  0  0  0999 V2000
  139.6384  122.1473  115.8503 C   0  0  0  0  0  0  0  0  0  0  0  0
  140.5067  123.1112  116.3649 C   0  0  0  0  0  0  0  0  0  0  0  0
  140.1034  124.4476  116.4850 C   0  0  0  0  0  0  0  0  0  0  0  0
  138.8131  124.8670  116.1163 C   0  0  0  0  0  0  0  0  0  0  0  0
  137.9641  123.8956  115.5678 C   0  0  0  0  0  0  0  0  0  0  0  0
  138.3698  122.5591  115.4189 C   0  0  0  0  0  0  0  0  0  0  0  0
  138.4152  126.3487  116.2548 C   0  0  1  0  0  0  0  0  0  0  0  0
  137.0096  126.5029  115.5947 C   0  0  0  0  0  0  0  0  0  0  0  0
  136.2515  127.7422  116.0557 C   0  0  0  0  0  0  0  0  0  0  0  0
  136.0298  127.6778  117.5487 C   0  0  0  0  0  0  0  0  0  0  0  0
  135.0480  128.2063  118.0721 O   0  0  0  0  0  0  0  0  0  0  0  0
  137.0377  126.9068  118.3704 C   0  0  0  0  0  0  0  0  0  0  0  0
  138.4235  126.9192  117.7198 C   0  0  2  0  0  0  0  0  0  0  0  0
  138.9694  128.2858  117.5716 N   0  0  0  0  0  0  0  0  0  0  0  0
  139.4370  128.8684  118.8266 C   0  0  0  0  0  0  0  0  0  0  0  0
  140.0653  128.1386  116.6184 C   0  0  0  0  0  0  0  0  0  0  0  0
  139.4471  127.2723  115.5347 C   0  0  0  0  0  0  0  0  0  0  0  0
  140.3877  120.3454  114.4751 C   0  0  0  0  0  0  0  0  0  0  0  0
  139.9443  120.8177  115.7414 O   0  0  0  0  0  0  0  0  0  0  0  0
  137.4027  121.7428  114.8862 O   0  0  0  0  0  0  0  0  0  0  0  0
  136.8439  120.7855  115.7984 C   0  0  0  0  0  0  0  0  0  0  0  0
  136.8143  119.4066  115.1599 C   0  0  0  0  0  0  0  0  0  0  0  0
  135.6096  118.8100  115.2982 F   0  0  0  0  0  0  0  0  0  0  0  0
  137.1043  119.4599  113.8401 F   0  0  0  0  0  0  0  0  0  0  0  0
  137.7328  118.5966  115.7399 F   0  0  0  0  0  0  0  0  0  0  0  0
  141.4566  122.8365  116.6603 H   0  0  0  0  0  0  0  0  0  0  0  0
  140.7712  125.1426  116.8539 H   0  0  0  0  0  0  0  0  0  0  0  0
  137.0162  124.1696  115.2655 H   0  0  0  0  0  0  0  0  0  0  0  0
  136.4256  125.6396  115.8368 H   0  0  0  0  0  0  0  0  0  0  0  0
  137.1672  126.6053  114.5413 H   0  0  0  0  0  0  0  0  0  0  0  0
  135.3057  127.7864  115.5573 H   0  0  0  0  0  0  0  0  0  0  0  0
  136.8232  128.6153  115.8198 H   0  0  0  0  0  0  0  0  0  0  0  0
  136.7071  125.8935  118.4638 H   0  0  0  0  0  0  0  0  0  0  0  0
  137.1145  127.3739  119.3300 H   0  0  0  0  0  0  0  0  0  0  0  0
  139.0124  126.3176  118.3802 H   0  0  0  0  0  0  0  0  0  0  0  0
  138.6142  128.9640  119.5039 H   0  0  0  0  0  0  0  0  0  0  0  0
  139.8569  129.8341  118.6369 H   0  0  0  0  0  0  0  0  0  0  0  0
  140.1825  128.2339  119.2584 H   0  0  0  0  0  0  0  0  0  0  0  0
  140.9061  127.6532  117.0683 H   0  0  0  0  0  0  0  0  0  0  0  0
  140.4413  129.0719  116.2545 H   0  0  0  0  0  0  0  0  0  0  0  0
  140.2008  126.6836  115.0549 H   0  0  0  0  0  0  0  0  0  0  0  0
  138.9784  127.8671  114.7788 H   0  0  0  0  0  0  0  0  0  0  0  0
  140.5890  119.2963  114.5362 H   0  0  0  0  0  0  0  0  0  0  0  0
  141.2803  120.8640  114.1936 H   0  0  0  0  0  0  0  0  0  0  0  0
  139.6274  120.5206  113.7429 H   0  0  0  0  0  0  0  0  0  0  0  0
  135.8466  121.0791  116.0517 H   0  0  0  0  0  0  0  0  0  0  0  0
  137.4492  120.7489  116.6800 H   0  0  0  0  0  0  0  0  0  0  0  0
  1  2  2  0
  2  3  1  0
  2 26  1  0
  3  4  2  0
  3 27  1  0
  4  5  1  0
  5  6  2  0
  5 28  1  0
  6 20  1  0
  6  1  1  0
  7  4  1  1
  7  8  1  0
  8  9  1  0
  8 29  1  0
  8 30  1  0
  9 10  1  0
  9 31  1  0
  9 32  1  0
 10 11  2  0
 10 12  1  0
 12 13  1  0
 12 33  1  0
 12 34  1  0
 13 14  1  0
 13  7  1  0
 13 35  1  1
 14 15  1  0
 14 16  1  0
 15 36  1  0
 15 37  1  0
 15 38  1  0
 16 17  1  0
 16 39  1  0
 16 40  1  0
 17  7  1  0
 17 41  1  0
 17 42  1  0
 18 19  1  0
 18 43  1  0
 18 44  1  0
 18 45  1  0
 19  1  1  0
 20 21  1  0
 21 22  1  0
 21 46  1  0
 21 47  1  0
 22 23  1  0
 22 24  1  0
 22 25  1  0
M  END
>  <minimizedAffinity>  (5) 
-7.97834

>  <mol_id>  (5) 
76063

>  <source_index>  (5) 
4

>  <layer>  (5) 
L2

>  <uniprot>  (5) 
P31645

>  <paff>  (5) 
7

>  <smiles>  (5) 
COc1ccc([C@@]23CCC(=O)C[C@@H]2N(C)CC3)cc1OCC(F)(F)F

$$$$
L2:P31645:78423
     RDKit          3D

 60 63  0  0  0  0  0  0  0  0999 V2000
  134.4833  131.2236  119.6798 C   0  0  0  0  0  0  0  0  0  0  0  0
  135.2892  130.3254  118.9605 C   0  0  0  0  0  0  0  0  0  0  0  0
  135.7730  130.6331  117.6772 C   0  0  0  0  0  0  0  0  0  0  0  0
  135.4233  131.8927  117.1528 C   0  0  0  0  0  0  0  0  0  0  0  0
  134.5895  132.7719  117.8518 C   0  0  0  0  0  0  0  0  0  0  0  0
  134.0879  132.4322  119.1061 C   0  0  0  0  0  0  0  0  0  0  0  0
  136.7277  129.7088  116.8860 C   0  0  1  0  0  0  0  0  0  0  0  0
  137.9558  130.5558  116.4497 C   0  0  0  0  0  0  0  0  0  0  0  0
  138.7961  131.0141  117.6456 C   0  0  0  0  0  0  0  0  0  0  0  0
  138.9261  129.9107  118.6738 C   0  0  0  0  0  0  0  0  0  0  0  0
  139.2852  130.1441  119.8266 O   0  0  0  0  0  0  0  0  0  0  0  0
  138.6552  128.5082  118.1924 C   0  0  0  0  0  0  0  0  0  0  0  0
  137.2231  128.4156  117.6434 C   0  0  2  0  0  0  0  0  0  0  0  0
  136.9279  127.2456  116.7751 N   0  0  0  0  0  0  0  0  0  0  0  0
  138.0103  126.8016  115.9026 C   0  0  0  0  0  0  0  0  0  0  0  0
  135.7507  127.6594  116.0044 C   0  0  0  0  0  0  0  0  0  0  0  0
  136.0115  129.1122  115.6448 C   0  0  0  0  0  0  0  0  0  0  0  0
  134.0775  130.8863  120.9458 O   0  0  0  0  0  0  0  0  0  0  0  0
  133.5536  129.5499  120.9852 C   0  0  0  0  0  0  0  0  0  0  0  0
  132.0306  129.6449  120.9574 C   0  0  0  0  0  0  0  0  0  0  0  0
  129.9994  129.8663  119.4861 C   0  0  0  0  0  0  0  0  0  0  0  0
  131.4868  129.5560  119.5343 C   0  0  0  0  0  0  0  0  0  0  0  0
  133.2943  133.3864  119.6813 O   0  0  0  0  0  0  0  0  0  0  0  0
  131.9076  133.0552  119.7751 C   0  0  0  0  0  0  0  0  0  0  0  0
  131.3724  133.6856  121.0277 C   0  0  0  0  0  0  0  0  0  0  0  0
  130.3063  132.9921  121.8369 C   0  0  0  0  0  0  0  0  0  0  0  0
  131.7043  133.1092  122.3804 C   0  0  0  0  0  0  0  0  0  0  0  0
  135.5321  129.4167  119.3851 H   0  0  0  0  0  0  0  0  0  0  0  0
  135.7911  132.1738  116.2305 H   0  0  0  0  0  0  0  0  0  0  0  0
  134.3432  133.6826  117.4334 H   0  0  0  0  0  0  0  0  0  0  0  0
  137.6089  131.4190  115.9211 H   0  0  0  0  0  0  0  0  0  0  0  0
  138.5746  129.9421  115.8290 H   0  0  0  0  0  0  0  0  0  0  0  0
  138.3256  131.8612  118.0994 H   0  0  0  0  0  0  0  0  0  0  0  0
  139.7743  131.2703  117.2959 H   0  0  0  0  0  0  0  0  0  0  0  0
  138.7683  127.8245  119.0076 H   0  0  0  0  0  0  0  0  0  0  0  0
  139.3486  128.2603  117.4161 H   0  0  0  0  0  0  0  0  0  0  0  0
  136.6802  128.2959  118.5576 H   0  0  0  0  0  0  0  0  0  0  0  0
  138.8501  126.5082  116.4972 H   0  0  0  0  0  0  0  0  0  0  0  0
  138.2957  127.6022  115.2527 H   0  0  0  0  0  0  0  0  0  0  0  0
  137.6786  125.9689  115.3183 H   0  0  0  0  0  0  0  0  0  0  0  0
  134.8633  127.5712  116.5957 H   0  0  0  0  0  0  0  0  0  0  0  0
  135.6014  127.0499  115.1377 H   0  0  0  0  0  0  0  0  0  0  0  0
  135.0910  129.6250  115.4587 H   0  0  0  0  0  0  0  0  0  0  0  0
  136.5995  129.2077  114.7560 H   0  0  0  0  0  0  0  0  0  0  0  0
  133.8994  128.9982  120.1362 H   0  0  0  0  0  0  0  0  0  0  0  0
  133.8806  129.0462  121.8708 H   0  0  0  0  0  0  0  0  0  0  0  0
  131.6223  128.8426  121.5357 H   0  0  0  0  0  0  0  0  0  0  0  0
  131.7475  130.5930  121.3647 H   0  0  0  0  0  0  0  0  0  0  0  0
  129.6527  129.7949  118.4764 H   0  0  0  0  0  0  0  0  0  0  0  0
  129.8297  130.8573  119.8522 H   0  0  0  0  0  0  0  0  0  0  0  0
  129.4688  129.1651  120.0958 H   0  0  0  0  0  0  0  0  0  0  0  0
  132.0086  130.2581  118.9182 H   0  0  0  0  0  0  0  0  0  0  0  0
  131.6330  128.5567  119.1808 H   0  0  0  0  0  0  0  0  0  0  0  0
  131.7889  131.9928  119.8222 H   0  0  0  0  0  0  0  0  0  0  0  0
  131.3773  133.4147  118.9181 H   0  0  0  0  0  0  0  0  0  0  0  0
  131.4719  134.6479  120.5706 H   0  0  0  0  0  0  0  0  0  0  0  0
  129.9321  132.0397  121.5240 H   0  0  0  0  0  0  0  0  0  0  0  0
  129.3324  133.2586  122.1911 H   0  0  0  0  0  0  0  0  0  0  0  0
  132.3241  132.2401  122.4540 H   0  0  0  0  0  0  0  0  0  0  0  0
  132.1358  133.4935  123.2810 H   0  0  0  0  0  0  0  0  0  0  0  0
  1  2  2  0
  2  3  1  0
  2 28  1  0
  3  4  2  0
  4  5  1  0
  4 29  1  0
  5  6  2  0
  5 30  1  0
  6 23  1  0
  6  1  1  0
  7  3  1  1
  7  8  1  0
  8  9  1  0
  8 31  1  0
  8 32  1  0
  9 10  1  0
  9 33  1  0
  9 34  1  0
 10 11  2  0
 10 12  1  0
 12 13  1  0
 12 35  1  0
 12 36  1  0
 13 14  1  0
 13  7  1  0
 13 37  1  1
 14 15  1  0
 14 16  1  0
 15 38  1  0
 15 39  1  0
 15 40  1  0
 16 17  1  0
 16 41  1  0
 16 42  1  0
 17  7  1  0
 17 43  1  0
 17 44  1  0
 18  1  1  0
 19 18  1  0
 19 45  1  0
 19 46  1  0
 20 19  1  0
 20 47  1  0
 20 48  1  0
 21 22  1  0
 21 49  1  0
 21 50  1  0
 21 51  1  0
 22 20  1  0
 22 52  1  0
 22 53  1  0
 23 24  1  0
 24 25  1  0
 24 54  1  0
 24 55  1  0
 25 26  1  0
 25 56  1  0
 26 27  1  0
 26 57  1  0
 26 58  1  0
 27 25  1  0
 27 59  1  0
 27 60  1  0
M  END
>  <minimizedAffinity>  (6) 
-7.48672

>  <mol_id>  (6) 
78423

>  <source_index>  (6) 
5

>  <layer>  (6) 
L2

>  <uniprot>  (6) 
P31645

>  <paff>  (6) 
6.0968999999999998

>  <smiles>  (6) 
CCCCOc1cc([C@@]23CCC(=O)C[C@@H]2N(C)CC3)ccc1OCC1CC1

$$$$
L2:P31645:96347
     RDKit          3D

 60 63  0  0  0  0  0  0  0  0999 V2000
  138.1286  127.4120  116.2224 C   0  0  2  0  0  0  0  0  0  0  0  0
  136.6685  127.5140  115.7117 C   0  0  0  0  0  0  0  0  0  0  0  0
  135.9343  128.8063  116.0582 C   0  0  0  0  0  0  0  0  0  0  0  0
  135.9951  129.1049  117.5592 C   0  0  1  0  0  0  0  0  0  0  0  0
  137.4637  129.2318  117.9792 C   0  0  0  0  0  0  0  0  0  0  0  0
  138.2659  127.9421  117.6843 C   0  0  2  0  0  0  0  0  0  0  0  0
  139.7208  128.1339  117.7976 N   0  0  0  0  0  0  0  0  0  0  0  0
  140.2098  128.8318  118.9700 C   0  0  0  0  0  0  0  0  0  0  0  0
  140.1899  128.6981  116.5305 C   0  0  0  0  0  0  0  0  0  0  0  0
  139.1048  128.3690  115.4976 C   0  0  0  0  0  0  0  0  0  0  0  0
  135.1136  130.3293  117.9336 C   0  0  2  0  0  0  0  0  0  0  0  0
  135.4819  131.6349  117.1961 C   0  0  0  0  0  0  0  0  0  0  0  0
  134.9971  132.9007  117.9121 C   0  0  0  0  0  0  0  0  0  0  0  0
  133.7318  132.6658  118.7240 C   0  0  0  0  0  0  0  0  0  0  0  0
  133.9785  131.5930  119.7629 C   0  0  0  0  0  0  0  0  0  0  0  0
  133.3450  131.5626  120.8172 O   0  0  0  0  0  0  0  0  0  0  0  0
  135.0416  130.5592  119.4497 C   0  0  0  0  0  0  0  0  0  0  0  0
  139.5556  123.2884  115.5672 C   0  0  0  0  0  0  0  0  0  0  0  0
  138.1954  123.5937  115.4648 C   0  0  0  0  0  0  0  0  0  0  0  0
  137.7268  124.9009  115.6660 C   0  0  0  0  0  0  0  0  0  0  0  0
  138.5982  125.9494  115.9838 C   0  0  0  0  0  0  0  0  0  0  0  0
  139.9663  125.6273  116.0796 C   0  0  0  0  0  0  0  0  0  0  0  0
  140.4494  124.3293  115.8516 C   0  0  0  0  0  0  0  0  0  0  0  0
  139.3752  120.9574  116.0567 C   0  0  0  0  0  0  0  0  0  0  0  0
  140.0674  122.0265  115.4257 O   0  0  0  0  0  0  0  0  0  0  0  0
  141.8101  124.2157  115.9977 O   0  0  0  0  0  0  0  0  0  0  0  0
  142.3729  124.9600  117.0729 C   0  0  0  0  0  0  0  0  0  0  0  0
  136.1159  126.6995  116.1313 H   0  0  0  0  0  0  0  0  0  0  0  0
  136.7311  127.4918  114.6438 H   0  0  0  0  0  0  0  0  0  0  0  0
  134.9098  128.7131  115.7640 H   0  0  0  0  0  0  0  0  0  0  0  0
  136.4099  129.6111  115.5376 H   0  0  0  0  0  0  0  0  0  0  0  0
  135.5737  128.2948  118.1170 H   0  0  0  0  0  0  0  0  0  0  0  0
  137.5063  129.4323  119.0294 H   0  0  0  0  0  0  0  0  0  0  0  0
  137.9007  130.0286  117.4143 H   0  0  0  0  0  0  0  0  0  0  0  0
  137.8536  127.2684  118.4061 H   0  0  0  0  0  0  0  0  0  0  0  0
  139.8250  128.3621  119.8510 H   0  0  0  0  0  0  0  0  0  0  0  0
  139.8862  129.8512  118.9390 H   0  0  0  0  0  0  0  0  0  0  0  0
  141.2791  128.7973  118.9854 H   0  0  0  0  0  0  0  0  0  0  0  0
  141.1210  128.2535  116.2470 H   0  0  0  0  0  0  0  0  0  0  0  0
  140.3537  129.7528  116.6063 H   0  0  0  0  0  0  0  0  0  0  0  0
  139.5341  127.8897  114.6427 H   0  0  0  0  0  0  0  0  0  0  0  0
  138.6110  129.2496  115.1432 H   0  0  0  0  0  0  0  0  0  0  0  0
  134.1371  130.0620  117.5872 H   0  0  0  0  0  0  0  0  0  0  0  0
  135.0424  131.6083  116.2209 H   0  0  0  0  0  0  0  0  0  0  0  0
  136.5501  131.6843  117.1592 H   0  0  0  0  0  0  0  0  0  0  0  0
  134.7988  133.6544  117.1790 H   0  0  0  0  0  0  0  0  0  0  0  0
  135.7664  133.2034  118.5914 H   0  0  0  0  0  0  0  0  0  0  0  0
  132.9441  132.3529  118.0709 H   0  0  0  0  0  0  0  0  0  0  0  0
  133.4544  133.5750  119.2153 H   0  0  0  0  0  0  0  0  0  0  0  0
  134.7964  129.6388  119.9372 H   0  0  0  0  0  0  0  0  0  0  0  0
  135.9899  130.9110  119.7988 H   0  0  0  0  0  0  0  0  0  0  0  0
  137.5236  122.8441  115.2371 H   0  0  0  0  0  0  0  0  0  0  0  0
  136.7168  125.0937  115.5777 H   0  0  0  0  0  0  0  0  0  0  0  0
  140.6370  126.3719  116.3261 H   0  0  0  0  0  0  0  0  0  0  0  0
  139.8859  120.0375  115.8618 H   0  0  0  0  0  0  0  0  0  0  0  0
  138.3787  120.9008  115.6711 H   0  0  0  0  0  0  0  0  0  0  0  0
  139.3399  121.1290  117.1123 H   0  0  0  0  0  0  0  0  0  0  0  0
  143.4311  124.8037  117.0994 H   0  0  0  0  0  0  0  0  0  0  0  0
  141.9411  124.6348  117.9963 H   0  0  0  0  0  0  0  0  0  0  0  0
  142.1695  126.0009  116.9311 H   0  0  0  0  0  0  0  0  0  0  0  0
  1 21  1  1
  1  2  1  0
  2  3  1  0
  2 28  1  0
  2 29  1  0
  3  4  1  0
  3 30  1  0
  3 31  1  0
  4 11  1  0
  4  5  1  0
  4 32  1  1
  5  6  1  0
  5 33  1  0
  5 34  1  0
  6  7  1  0
  6  1  1  0
  6 35  1  1
  7  8  1  0
  7  9  1  0
  8 36  1  0
  8 37  1  0
  8 38  1  0
  9 10  1  0
  9 39  1  0
  9 40  1  0
 10  1  1  0
 10 41  1  0
 10 42  1  0
 11 12  1  0
 11 43  1  6
 12 13  1  0
 12 44  1  0
 12 45  1  0
 13 14  1  0
 13 46  1  0
 13 47  1  0
 14 15  1  0
 14 48  1  0
 14 49  1  0
 15 16  2  0
 15 17  1  0
 17 11  1  0
 17 50  1  0
 17 51  1  0
 18 19  2  0
 19 20  1  0
 19 52  1  0
 20 21  2  0
 20 53  1  0
 21 22  1  0
 22 23  2  0
 22 54  1  0
 23 26  1  0
 23 18  1  0
 24 25  1  0
 24 55  1  0
 24 56  1  0
 24 57  1  0
 25 18  1  0
 26 27  1  0
 27 58  1  0
 27 59  1  0
 27 60  1  0
M  END
>  <minimizedAffinity>  (7) 
-9.22423

>  <mol_id>  (7) 
96347

>  <source_index>  (7) 
6

>  <layer>  (7) 
L2

>  <uniprot>  (7) 
P31645

>  <paff>  (7) 
7.3010000000000002

>  <smiles>  (7) 
COc1ccc([C@@]23CC[C@H](C4CCCC(=O)C4)C[C@@H]2N(C)CC3)cc1OC

$$$$
L2:P31645:103500
     RDKit          3D

 55 59  0  0  0  0  0  0  0  0999 V2000
  136.1184  129.4964  118.3356 N   0  0  0  0  0  0  0  0  0  0  0  0
  137.5730  129.7068  118.2987 C   0  0  0  0  0  0  0  0  0  0  0  0
  138.3301  128.4212  118.7161 C   0  0  0  0  0  0  0  0  0  0  0  0
  137.9116  127.1689  118.0412 N   0  0  0  0  0  0  0  0  0  0  0  0
  136.4380  127.0469  118.1808 C   0  0  0  0  0  0  0  0  0  0  0  0
  135.6277  128.2724  117.6935 C   0  0  0  0  0  0  0  0  0  0  0  0
  132.6369  130.9217  121.3279 C   0  0  0  0  0  0  0  0  0  0  0  0
  132.6287  132.0753  120.5747 C   0  0  0  0  0  0  0  0  0  0  0  0
  133.5696  132.0584  119.4862 C   0  0  0  0  0  0  0  0  0  0  0  0
  133.8144  133.0507  118.5091 C   0  0  0  0  0  0  0  0  0  0  0  0
  134.7698  132.8442  117.5223 C   0  0  0  0  0  0  0  0  0  0  0  0
  135.4931  131.6606  117.5017 C   0  0  0  0  0  0  0  0  0  0  0  0
  135.3097  130.6301  118.4518 C   0  0  0  0  0  0  0  0  0  0  0  0
  134.3118  130.8687  119.4458 C   0  0  0  0  0  0  0  0  0  0  0  0
  133.7763  129.8143  120.7115 S   0  0  0  0  0  0  0  0  0  0  0  0
  130.5533  130.1793  122.2569 N   0  0  0  0  0  0  0  0  0  0  0  0
  131.8511  130.5471  122.4916 C   0  0  0  0  0  0  0  0  0  0  0  0
  132.2531  130.5360  123.6531 O   0  0  0  0  0  0  0  0  0  0  0  0
  130.1228  130.1618  121.3472 H   0  0  0  0  0  0  0  0  0  0  0  0
  130.0026  129.9192  123.0637 H   0  0  0  0  0  0  0  0  0  0  0  0
  138.3165  127.1153  116.6231 C   0  0  0  0  0  0  0  0  0  0  0  0
  137.5267  126.0983  115.7748 C   0  0  0  0  0  0  0  0  0  0  0  0
  138.1913  124.7442  115.6709 C   0  0  0  0  0  0  0  0  0  0  0  0
  139.5898  124.6366  115.6734 C   0  0  0  0  0  0  0  0  0  0  0  0
  140.2122  123.3879  115.5858 C   0  0  0  0  0  0  0  0  0  0  0  0
  139.4406  122.2289  115.4956 C   0  0  0  0  0  0  0  0  0  0  0  0
  140.0554  120.9043  115.4031 C   0  0  0  0  0  0  0  0  0  0  0  0
  139.2840  119.8122  115.3201 C   0  0  0  0  0  0  0  0  0  0  0  0
  137.8036  119.9110  115.3198 C   0  0  0  0  0  0  0  0  0  0  0  0
  137.1080  118.9042  115.2421 O   0  0  0  0  0  0  0  0  0  0  0  0
  137.2689  121.1674  115.4091 N   0  0  0  0  0  0  0  0  0  0  0  0
  138.0432  122.3325  115.4972 C   0  0  0  0  0  0  0  0  0  0  0  0
  137.4183  123.5771  115.5859 C   0  0  0  0  0  0  0  0  0  0  0  0
  136.2602  121.2215  115.4093 H   0  0  0  0  0  0  0  0  0  0  0  0
  137.8294  130.4981  118.9718 H   0  0  0  0  0  0  0  0  0  0  0  0
  137.8558  129.9596  117.2982 H   0  0  0  0  0  0  0  0  0  0  0  0
  138.1913  128.2873  119.7686 H   0  0  0  0  0  0  0  0  0  0  0  0
  139.3471  128.5791  118.4235 H   0  0  0  0  0  0  0  0  0  0  0  0
  136.2149  126.8925  119.2158 H   0  0  0  0  0  0  0  0  0  0  0  0
  136.1465  126.2294  117.5550 H   0  0  0  0  0  0  0  0  0  0  0  0
  134.5958  128.1339  117.9403 H   0  0  0  0  0  0  0  0  0  0  0  0
  135.7423  128.3658  116.6338 H   0  0  0  0  0  0  0  0  0  0  0  0
  132.0071  132.8751  120.7723 H   0  0  0  0  0  0  0  0  0  0  0  0
  133.2801  133.9334  118.5293 H   0  0  0  0  0  0  0  0  0  0  0  0
  134.9409  133.5684  116.8073 H   0  0  0  0  0  0  0  0  0  0  0  0
  136.1970  131.5263  116.7591 H   0  0  0  0  0  0  0  0  0  0  0  0
  139.3531  126.8537  116.5804 H   0  0  0  0  0  0  0  0  0  0  0  0
  138.1136  128.0813  116.2102 H   0  0  0  0  0  0  0  0  0  0  0  0
  137.4156  126.4963  114.7878 H   0  0  0  0  0  0  0  0  0  0  0  0
  136.5869  125.9477  116.2636 H   0  0  0  0  0  0  0  0  0  0  0  0
  140.1664  125.4898  115.7407 H   0  0  0  0  0  0  0  0  0  0  0  0
  141.2422  123.3233  115.5878 H   0  0  0  0  0  0  0  0  0  0  0  0
  141.0832  120.8114  115.4018 H   0  0  0  0  0  0  0  0  0  0  0  0
  139.7286  118.8831  115.2550 H   0  0  0  0  0  0  0  0  0  0  0  0
  136.3881  123.6387  115.5889 H   0  0  0  0  0  0  0  0  0  0  0  0
  1  2  1  0
  2  3  1  0
  2 35  1  0
  2 36  1  0
  3  4  1  0
  3 37  1  0
  3 38  1  0
  4 21  1  0
  4  5  1  0
  5  6  1  0
  5 39  1  0
  5 40  1  0
  6  1  1  0
  6 41  1  0
  6 42  1  0
  7  8  2  0
  8  9  1  0
  8 43  1  0
  9 10  2  0
 10 11  1  0
 10 44  1  0
 11 12  2  0
 11 45  1  0
 12 13  1  0
 12 46  1  0
 13  1  1  0
 13 14  2  0
 14 15  1  0
 14  9  1  0
 15  7  1  0
 16 17  1  0
 16 19  1  0
 16 20  1  0
 17 18  2  0
 17  7  1  0
 21 22  1  0
 21 47  1  0
 21 48  1  0
 22 23  1  0
 22 49  1  0
 22 50  1  0
 23 24  2  0
 24 25  1  0
 24 51  1  0
 25 26  2  0
 25 52  1  0
 26 27  1  0
 27 28  2  0
 27 53  1  0
 28 29  1  0
 28 54  1  0
 29 30  2  0
 29 31  1  0
 31 32  1  0
 31 34  1  0
 32 33  2  0
 32 26  1  0
 33 23  1  0
 33 55  1  0
M  END
>  <minimizedAffinity>  (8) 
-10.62083

>  <mol_id>  (8) 
103500

>  <source_index>  (8) 
7

>  <layer>  (8) 
L2

>  <uniprot>  (8) 
P31645

>  <paff>  (8) 
7.3188000000000004

>  <smiles>  (8) 
NC(=O)c1cc2cccc(N3CCN(CCc4ccc5ccc(=O)[nH]c5c4)CC3)c2s1

$$$$
L2:P31645:103879
     RDKit          3D

 54 57  0  0  0  0  0  0  0  0999 V2000
  135.4319  129.0669  119.7585 C   0  0  0  0  0  0  0  0  0  0  0  0
  134.7452  128.8090  120.9423 C   0  0  0  0  0  0  0  0  0  0  0  0
  133.4953  129.3996  121.1817 C   0  0  0  0  0  0  0  0  0  0  0  0
  132.8914  130.2723  120.2531 C   0  0  0  0  0  0  0  0  0  0  0  0
  133.5965  130.5225  119.0678 C   0  0  0  0  0  0  0  0  0  0  0  0
  134.8307  129.9105  118.8173 C   0  0  0  0  0  0  0  0  0  0  0  0
  131.5139  130.9172  120.5750 C   0  0  1  0  0  0  0  0  0  0  0  0
  130.4322  130.0139  119.9252 C   0  0  0  0  0  0  0  0  0  0  0  0
  128.9920  130.3571  120.2696 C   0  0  0  0  0  0  0  0  0  0  0  0
  128.8429  130.4835  121.7594 C   0  0  0  0  0  0  0  0  0  0  0  0
  127.9746  129.8771  122.3822 O   0  0  0  0  0  0  0  0  0  0  0  0
  129.7489  131.4829  122.4188 C   0  0  0  0  0  0  0  0  0  0  0  0
  131.2184  131.1720  122.0910 C   0  0  2  0  0  0  0  0  0  0  0  0
  132.1156  132.3069  122.3683 N   0  0  0  0  0  0  0  0  0  0  0  0
  131.9777  132.9584  123.6564 C   0  0  0  0  0  0  0  0  0  0  0  0
  132.0463  133.2176  121.2245 C   0  0  0  0  0  0  0  0  0  0  0  0
  131.5126  132.3757  120.0569 C   0  0  0  0  0  0  0  0  0  0  0  0
  136.6749  127.2769  118.7980 C   0  0  0  0  0  0  0  0  0  0  0  0
  136.6559  128.5510  119.4259 O   0  0  0  0  0  0  0  0  0  0  0  0
  135.4564  130.2287  117.6366 O   0  0  0  0  0  0  0  0  0  0  0  0
  136.3724  131.3076  117.8163 C   0  0  0  0  0  0  0  0  0  0  0  0
  137.6076  131.1429  116.9354 C   0  0  0  0  0  0  0  0  0  0  0  0
  138.1461  132.5588  116.7658 C   0  0  0  0  0  0  0  0  0  0  0  0
  136.9650  133.4957  117.0246 C   0  0  0  0  0  0  0  0  0  0  0  0
  135.7635  132.5929  117.2674 C   0  0  0  0  0  0  0  0  0  0  0  0
  135.1584  128.1794  121.6480 H   0  0  0  0  0  0  0  0  0  0  0  0
  133.0030  129.1890  122.0639 H   0  0  0  0  0  0  0  0  0  0  0  0
  133.1993  131.1686  118.3680 H   0  0  0  0  0  0  0  0  0  0  0  0
  130.6138  129.0069  120.2380 H   0  0  0  0  0  0  0  0  0  0  0  0
  130.5230  130.1640  118.8697 H   0  0  0  0  0  0  0  0  0  0  0  0
  128.3466  129.5821  119.9122 H   0  0  0  0  0  0  0  0  0  0  0  0
  128.7292  131.2857  119.8075 H   0  0  0  0  0  0  0  0  0  0  0  0
  129.6077  131.4414  123.4786 H   0  0  0  0  0  0  0  0  0  0  0  0
  129.5112  132.4604  122.0543 H   0  0  0  0  0  0  0  0  0  0  0  0
  131.3873  130.3064  122.6969 H   0  0  0  0  0  0  0  0  0  0  0  0
  132.0393  132.2266  124.4346 H   0  0  0  0  0  0  0  0  0  0  0  0
  131.0303  133.4532  123.7062 H   0  0  0  0  0  0  0  0  0  0  0  0
  132.7618  133.6761  123.7788 H   0  0  0  0  0  0  0  0  0  0  0  0
  133.0179  133.6021  120.9940 H   0  0  0  0  0  0  0  0  0  0  0  0
  131.4163  134.0586  121.4261 H   0  0  0  0  0  0  0  0  0  0  0  0
  132.1503  132.4712  119.2031 H   0  0  0  0  0  0  0  0  0  0  0  0
  130.5371  132.6903  119.7499 H   0  0  0  0  0  0  0  0  0  0  0  0
  137.6867  126.9948  118.5941 H   0  0  0  0  0  0  0  0  0  0  0  0
  136.1257  127.3230  117.8808 H   0  0  0  0  0  0  0  0  0  0  0  0
  136.2266  126.5531  119.4461 H   0  0  0  0  0  0  0  0  0  0  0  0
  136.6005  131.3283  118.8615 H   0  0  0  0  0  0  0  0  0  0  0  0
  137.3430  130.7227  115.9876 H   0  0  0  0  0  0  0  0  0  0  0  0
  138.3299  130.4815  117.3665 H   0  0  0  0  0  0  0  0  0  0  0  0
  138.5195  132.6976  115.7727 H   0  0  0  0  0  0  0  0  0  0  0  0
  138.9541  132.7531  117.4398 H   0  0  0  0  0  0  0  0  0  0  0  0
  136.7939  134.1228  116.1747 H   0  0  0  0  0  0  0  0  0  0  0  0
  137.1488  134.1390  117.8596 H   0  0  0  0  0  0  0  0  0  0  0  0
  135.2382  132.4051  116.3543 H   0  0  0  0  0  0  0  0  0  0  0  0
  135.0497  133.0282  117.9352 H   0  0  0  0  0  0  0  0  0  0  0  0
  1  2  2  0
  2  3  1  0
  2 26  1  0
  3  4  2  0
  3 27  1  0
  4  5  1  0
  5  6  2  0
  5 28  1  0
  6 20  1  0
  6  1  1  0
  7  4  1  1
  7  8  1  0
  8  9  1  0
  8 29  1  0
  8 30  1  0
  9 10  1  0
  9 31  1  0
  9 32  1  0
 10 11  2  0
 10 12  1  0
 12 13  1  0
 12 33  1  0
 12 34  1  0
 13 14  1  0
 13  7  1  0
 13 35  1  1
 14 15  1  0
 14 16  1  0
 15 36  1  0
 15 37  1  0
 15 38  1  0
 16 17  1  0
 16 39  1  0
 16 40  1  0
 17  7  1  0
 17 41  1  0
 17 42  1  0
 18 19  1  0
 18 43  1  0
 18 44  1  0
 18 45  1  0
 19  1  1  0
 20 21  1  0
 21 22  1  0
 21 46  1  0
 22 23  1  0
 22 47  1  0
 22 48  1  0
 23 24  1  0
 23 49  1  0
 23 50  1  0
 24 25  1  0
 24 51  1  0
 24 52  1  0
 25 21  1  0
 25 53  1  0
 25 54  1  0
M  END
>  <minimizedAffinity>  (9) 
-8.05964

>  <mol_id>  (9) 
103879

>  <source_index>  (9) 
8

>  <layer>  (9) 
L2

>  <uniprot>  (9) 
P31645

>  <paff>  (9) 
6.0968999999999998

>  <smiles>  (9) 
COc1ccc([C@@]23CCC(=O)C[C@@H]2N(C)CC3)cc1OC1CCCC1

$$$$
L2:P31645:122886
     RDKit          3D

 44 46  0  0  0  0  0  0  0  0999 V2000
  131.3279  130.7124  120.3637 C   0  0  2  0  0  0  0  0  0  0  0  0
  131.6996  129.9243  121.6567 C   0  0  0  0  0  0  0  0  0  0  0  0
  132.1680  130.8266  122.7859 C   0  0  0  0  0  0  0  0  0  0  0  0
  131.0771  131.8131  123.1026 C   0  0  0  0  0  0  0  0  0  0  0  0
  130.6577  131.9637  124.2490 O   0  0  0  0  0  0  0  0  0  0  0  0
  130.6039  132.6783  121.9649 C   0  0  0  0  0  0  0  0  0  0  0  0
  130.3423  131.8889  120.6763 C   0  0  2  0  0  0  0  0  0  0  0  0
  128.9709  131.3639  120.4957 N   0  0  0  0  0  0  0  0  0  0  0  0
  128.3198  130.7574  121.6489 C   0  0  0  0  0  0  0  0  0  0  0  0
  129.0763  130.4385  119.3672 C   0  0  0  0  0  0  0  0  0  0  0  0
  130.4607  129.8023  119.4432 C   0  0  0  0  0  0  0  0  0  0  0  0
  135.0907  131.7169  118.3402 C   0  0  0  0  0  0  0  0  0  0  0  0
  134.1646  132.7184  118.6338 C   0  0  0  0  0  0  0  0  0  0  0  0
  132.9560  132.4137  119.2745 C   0  0  0  0  0  0  0  0  0  0  0  0
  132.6354  131.1007  119.6394 C   0  0  0  0  0  0  0  0  0  0  0  0
  133.5849  130.0985  119.3354 C   0  0  0  0  0  0  0  0  0  0  0  0
  134.7980  130.3901  118.6947 C   0  0  0  0  0  0  0  0  0  0  0  0
  136.5894  133.2463  117.2796 C   0  0  0  0  0  0  0  0  0  0  0  0
  136.2953  131.9281  117.7180 O   0  0  0  0  0  0  0  0  0  0  0  0
  135.7535  129.4565  118.3775 O   0  0  0  0  0  0  0  0  0  0  0  0
  135.4640  128.5370  117.3352 C   0  0  0  0  0  0  0  0  0  0  0  0
  132.4840  129.2352  121.4227 H   0  0  0  0  0  0  0  0  0  0  0  0
  130.8157  129.4232  121.9922 H   0  0  0  0  0  0  0  0  0  0  0  0
  133.0507  131.3510  122.4846 H   0  0  0  0  0  0  0  0  0  0  0  0
  132.3898  130.2393  123.6524 H   0  0  0  0  0  0  0  0  0  0  0  0
  131.3515  133.4174  121.7655 H   0  0  0  0  0  0  0  0  0  0  0  0
  129.6752  133.1178  122.2636 H   0  0  0  0  0  0  0  0  0  0  0  0
  130.5130  132.6830  119.9798 H   0  0  0  0  0  0  0  0  0  0  0  0
  128.2668  131.4708  122.4446 H   0  0  0  0  0  0  0  0  0  0  0  0
  128.8832  129.9063  121.9699 H   0  0  0  0  0  0  0  0  0  0  0  0
  127.3311  130.4496  121.3793 H   0  0  0  0  0  0  0  0  0  0  0  0
  128.9654  130.9691  118.4447 H   0  0  0  0  0  0  0  0  0  0  0  0
  128.3096  129.6933  119.4102 H   0  0  0  0  0  0  0  0  0  0  0  0
  130.8943  129.7472  118.4666 H   0  0  0  0  0  0  0  0  0  0  0  0
  130.4038  128.8073  119.8327 H   0  0  0  0  0  0  0  0  0  0  0  0
  134.3722  133.6958  118.3759 H   0  0  0  0  0  0  0  0  0  0  0  0
  132.2885  133.1730  119.4816 H   0  0  0  0  0  0  0  0  0  0  0  0
  133.3788  129.1207  119.5932 H   0  0  0  0  0  0  0  0  0  0  0  0
  137.5538  133.2613  116.8163 H   0  0  0  0  0  0  0  0  0  0  0  0
  136.5865  133.9102  118.1187 H   0  0  0  0  0  0  0  0  0  0  0  0
  135.8496  133.5607  116.5734 H   0  0  0  0  0  0  0  0  0  0  0  0
  136.2947  127.8758  117.2019 H   0  0  0  0  0  0  0  0  0  0  0  0
  135.2852  129.0727  116.4264 H   0  0  0  0  0  0  0  0  0  0  0  0
  134.5940  127.9694  117.5917 H   0  0  0  0  0  0  0  0  0  0  0  0
  1 15  1  6
  1  2  1  0
  2  3  1  0
  2 22  1  0
  2 23  1  0
  3  4  1  0
  3 24  1  0
  3 25  1  0
  4  5  2  0
  4  6  1  0
  6  7  1  0
  6 26  1  0
  6 27  1  0
  7  8  1  0
  7  1  1  0
  7 28  1  6
  8  9  1  0
  8 10  1  0
  9 29  1  0
  9 30  1  0
  9 31  1  0
 10 11  1  0
 10 32  1  0
 10 33  1  0
 11  1  1  0
 11 34  1  0
 11 35  1  0
 12 13  2  0
 13 14  1  0
 13 36  1  0
 14 15  2  0
 14 37  1  0
 15 16  1  0
 16 17  2  0
 16 38  1  0
 17 20  1  0
 17 12  1  0
 18 19  1  0
 18 39  1  0
 18 40  1  0
 18 41  1  0
 19 12  1  0
 20 21  1  0
 21 42  1  0
 21 43  1  0
 21 44  1  0
M  END
>  <minimizedAffinity>  (10) 
-7.09238

>  <mol_id>  (10) 
122886

>  <source_index>  (10) 
9

>  <layer>  (10) 
L2

>  <uniprot>  (10) 
P31645

>  <paff>  (10) 
8.8538999999999994

>  <smiles>  (10) 
COc1ccc([C@@]23CCC(=O)C[C@@H]2N(C)CC3)cc1OC

$$$$
