L3:P05622:30567
     RDKit          3D

 67 71  0  0  0  0  0  0  0  0999 V2000
   -8.6577    1.3241    2.5358 C   0  0  0  0  0  0  0  0  0  0  0  0
   -9.5281    0.4164    1.8692 C   0  0  0  0  0  0  0  0  0  0  0  0
   -8.8959   -0.6485    1.3597 N   0  0  0  0  0  0  0  0  0  0  0  0
   -7.6107   -0.4137    1.7118 N   0  0  0  0  0  0  0  0  0  0  0  0
   -6.5415   -1.2515    1.3796 C   0  0  0  0  0  0  0  0  0  0  0  0
   -5.3498   -0.8741    1.7317 N   0  0  0  0  0  0  0  0  0  0  0  0
   -5.1840    0.2792    2.4674 C   0  0  0  0  0  0  0  0  0  0  0  0
   -6.1528    1.0989    2.7897 N   0  0  0  0  0  0  0  0  0  0  0  0
   -7.4072    0.7527    2.3949 C   0  0  0  0  0  0  0  0  0  0  0  0
   -3.9234    0.5593    2.9259 N   0  0  0  0  0  0  0  0  0  0  0  0
   -3.0618   -0.5380    3.3407 C   0  0  0  0  0  0  0  0  0  0  0  0
   -1.6384   -0.5170    2.7211 C   0  0  2  0  0  0  0  0  0  0  0  0
   -1.0891   -1.9930    2.7789 C   0  0  0  0  0  0  0  0  0  0  0  0
   -1.2562   -2.9441    1.5756 C   0  0  0  0  0  0  0  0  0  0  0  0
   -2.6409   -3.2122    0.9744 C   0  0  0  0  0  0  0  0  0  0  0  0
   -3.6390   -3.9545    1.8702 C   0  0  0  0  0  0  0  0  0  0  0  0
   -4.5682   -4.9026    1.1278 C   0  0  0  0  0  0  0  0  0  0  0  0
   -4.4217   -6.2799    1.3959 C   0  0  0  0  0  0  0  0  0  0  0  0
   -5.2549   -7.2297    0.8066 C   0  0  0  0  0  0  0  0  0  0  0  0
   -6.2594   -6.8233   -0.0606 C   0  0  0  0  0  0  0  0  0  0  0  0
   -6.4209   -5.4682   -0.3451 C   0  0  0  0  0  0  0  0  0  0  0  0
   -5.5814   -4.4884    0.2276 C   0  0  0  0  0  0  0  0  0  0  0  0
   -5.8367   -3.0495   -0.1668 C   0  0  0  0  0  0  0  0  0  0  0  0
   -6.8054   -2.4254    0.7042 N   0  0  0  0  0  0  0  0  0  0  0  0
   -0.7575    0.3761    3.6613 C   0  0  0  0  0  0  0  0  0  0  0  0
    0.2932    1.1543    2.8783 C   0  0  0  0  0  0  0  0  0  0  0  0
   -0.3785    2.0772    1.8580 C   0  0  0  0  0  0  0  0  0  0  0  0
   -1.5602    1.5069    1.2092 N   0  0  0  0  0  0  0  0  0  0  0  0
   -1.5733    0.0427    1.2720 C   0  0  0  0  0  0  0  0  0  0  0  0
   -3.9536    1.3321    3.5815 H   0  0  0  0  0  0  0  0  0  0  0  0
   -7.7804   -2.5491    0.4362 H   0  0  0  0  0  0  0  0  0  0  0  0
   -2.4096    1.8331    1.6788 H   0  0  0  0  0  0  0  0  0  0  0  0
   -9.9919    3.4525    2.4267 C   0  0  0  0  0  0  0  0  0  0  0  0
   -8.9965    2.6094    3.2288 C   0  0  0  0  0  0  0  0  0  0  0  0
   -7.7386    3.4202    3.5450 C   0  0  0  0  0  0  0  0  0  0  0  0
  -10.5461    0.5643    1.7867 H   0  0  0  0  0  0  0  0  0  0  0  0
   -3.5337   -1.4564    3.0600 H   0  0  0  0  0  0  0  0  0  0  0  0
   -2.9320   -0.4365    4.3979 H   0  0  0  0  0  0  0  0  0  0  0  0
   -1.5691   -2.4652    3.6105 H   0  0  0  0  0  0  0  0  0  0  0  0
   -0.0295   -1.8512    2.8250 H   0  0  0  0  0  0  0  0  0  0  0  0
   -0.8666   -3.8930    1.8800 H   0  0  0  0  0  0  0  0  0  0  0  0
   -0.7521   -2.4230    0.7887 H   0  0  0  0  0  0  0  0  0  0  0  0
   -2.5038   -3.7944    0.0872 H   0  0  0  0  0  0  0  0  0  0  0  0
   -3.0710   -2.2467    0.8077 H   0  0  0  0  0  0  0  0  0  0  0  0
   -4.2385   -3.2273    2.3768 H   0  0  0  0  0  0  0  0  0  0  0  0
   -3.0593   -4.5570    2.5379 H   0  0  0  0  0  0  0  0  0  0  0  0
   -3.6807   -6.5915    2.0431 H   0  0  0  0  0  0  0  0  0  0  0  0
   -5.1251   -8.2322    1.0146 H   0  0  0  0  0  0  0  0  0  0  0  0
   -6.8843   -7.5215   -0.4931 H   0  0  0  0  0  0  0  0  0  0  0  0
   -7.1717   -5.1745   -0.9894 H   0  0  0  0  0  0  0  0  0  0  0  0
   -6.2052   -3.0245   -1.1710 H   0  0  0  0  0  0  0  0  0  0  0  0
   -4.9158   -2.5107   -0.0852 H   0  0  0  0  0  0  0  0  0  0  0  0
   -0.2644   -0.2517    4.3737 H   0  0  0  0  0  0  0  0  0  0  0  0
   -1.3988    1.0801    4.1493 H   0  0  0  0  0  0  0  0  0  0  0  0
    0.9319    0.4663    2.3649 H   0  0  0  0  0  0  0  0  0  0  0  0
    0.8658    1.7479    3.5600 H   0  0  0  0  0  0  0  0  0  0  0  0
    0.3378    2.3140    1.0992 H   0  0  0  0  0  0  0  0  0  0  0  0
   -0.7139    2.9368    2.3997 H   0  0  0  0  0  0  0  0  0  0  0  0
   -0.6819   -0.3239    0.8074 H   0  0  0  0  0  0  0  0  0  0  0  0
   -2.4587   -0.2853    0.7686 H   0  0  0  0  0  0  0  0  0  0  0  0
  -10.2031    4.3567    2.9583 H   0  0  0  0  0  0  0  0  0  0  0  0
  -10.8977    2.8998    2.2890 H   0  0  0  0  0  0  0  0  0  0  0  0
   -9.5704    3.6900    1.4723 H   0  0  0  0  0  0  0  0  0  0  0  0
   -9.4684    2.3450    4.1520 H   0  0  0  0  0  0  0  0  0  0  0  0
   -7.2521    3.6943    2.6322 H   0  0  0  0  0  0  0  0  0  0  0  0
   -7.0738    2.8296    4.1401 H   0  0  0  0  0  0  0  0  0  0  0  0
   -8.0099    4.3039    4.0838 H   0  0  0  0  0  0  0  0  0  0  0  0
  1  2  1  0
  2  3  2  0
  2 36  1  0
  3  4  1  0
  4  5  1  0
  5  6  2  0
  6  7  1  0
  7  8  2  0
  7 10  1  0
  8  9  1  0
  9  1  2  0
  9  4  1  0
 10 11  1  0
 10 30  1  0
 11 37  1  0
 11 38  1  0
 12 11  1  1
 12 13  1  0
 12 25  1  0
 13 14  1  0
 13 39  1  0
 13 40  1  0
 14 15  1  0
 14 41  1  0
 14 42  1  0
 15 16  1  0
 15 43  1  0
 15 44  1  0
 16 17  1  0
 16 45  1  0
 16 46  1  0
 17 18  2  0
 18 19  1  0
 18 47  1  0
 19 20  2  0
 19 48  1  0
 20 21  1  0
 20 49  1  0
 21 22  2  0
 21 50  1  0
 22 23  1  0
 22 17  1  0
 23 24  1  0
 23 51  1  0
 23 52  1  0
 24  5  1  0
 24 31  1  0
 25 26  1  0
 25 53  1  0
 25 54  1  0
 26 27  1  0
 26 55  1  0
 26 56  1  0
 27 28  1  0
 27 57  1  0
 27 58  1  0
 28 29  1  0
 28 32  1  0
 29 12  1  0
 29 59  1  0
 29 60  1  0
 33 34  1  0
 33 61  1  0
 33 62  1  0
 33 63  1  0
 34 35  1  0
 34  1  1  0
 34 64  1  0
 35 65  1  0
 35 66  1  0
 35 67  1  0
M  END
>  <minimizedAffinity>  (1) 
-9.66494

>  <mol_id>  (1) 
30567

>  <source_index>  (1) 
0

>  <layer>  (1) 
L3

>  <uniprot>  (1) 
P05622

>  <paff>  (1) 
7.8239000000000001

>  <smiles>  (1) 
CC(C)c1cnn2c3nc(nc12)NCC1(CCCCc2ccccc2CN3)CCCNC1

$$$$
L3:P05622:35180
     RDKit          3D

 68 71  0  0  0  0  0  0  0  0999 V2000
   -7.2004   -0.6224    0.4315 C   0  0  0  0  0  0  0  0  0  0  0  0
   -7.8226   -1.8265    0.7410 C   0  0  0  0  0  0  0  0  0  0  0  0
   -7.0455   -2.9698    0.9005 C   0  0  0  0  0  0  0  0  0  0  0  0
   -5.6456   -2.9111    0.7633 C   0  0  0  0  0  0  0  0  0  0  0  0
   -5.0258   -1.6759    0.4737 C   0  0  0  0  0  0  0  0  0  0  0  0
   -5.8112   -0.5305    0.3184 C   0  0  0  0  0  0  0  0  0  0  0  0
   -8.0312    0.5048    0.3245 O   0  0  0  0  0  0  0  0  0  0  0  0
   -8.9644    0.6974    1.3267 C   0  0  0  0  0  0  0  0  0  0  0  0
  -10.0611    0.1750    1.4492 O   0  0  0  0  0  0  0  0  0  0  0  0
  -10.2379    3.3029    2.1324 C   0  0  0  0  0  0  0  0  0  0  0  0
   -8.9226    2.8373    2.7105 C   0  0  0  0  0  0  0  0  0  0  0  0
   -8.3642    1.5905    2.3447 C   0  0  0  0  0  0  0  0  0  0  0  0
   -7.1818    1.1276    2.9393 C   0  0  0  0  0  0  0  0  0  0  0  0
   -6.5095    1.9193    3.8602 C   0  0  0  0  0  0  0  0  0  0  0  0
   -7.0160    3.1748    4.1890 C   0  0  0  0  0  0  0  0  0  0  0  0
   -8.2137    3.6556    3.6243 C   0  0  0  0  0  0  0  0  0  0  0  0
   -8.6713    5.0010    4.0052 C   0  0  0  0  0  0  0  0  0  0  0  0
   -9.5496    5.1817    5.0856 C   0  0  0  0  0  0  0  0  0  0  0  0
   -9.9998    6.4569    5.4343 C   0  0  0  0  0  0  0  0  0  0  0  0
   -9.5798    7.5665    4.7046 C   0  0  0  0  0  0  0  0  0  0  0  0
   -8.7071    7.4055    3.6302 C   0  0  0  0  0  0  0  0  0  0  0  0
   -8.2566    6.1307    3.2817 C   0  0  0  0  0  0  0  0  0  0  0  0
   -4.8419   -4.1853    0.9215 C   0  0  0  0  0  0  0  0  0  0  0  0
   -4.8108   -5.0252   -0.2820 N   0  0  0  0  0  0  0  0  0  0  0  0
   -5.5712   -4.7102   -0.8844 H   0  0  0  0  0  0  0  0  0  0  0  0
   -4.9652   -6.4775   -0.0072 C   0  0  2  0  0  0  0  0  0  0  0  0
   -6.4319   -6.9027   -0.1264 C   0  0  0  0  0  0  0  0  0  0  0  0
   -7.3911   -6.2689    0.2959 O   0  0  0  0  0  0  0  0  0  0  0  0
   -6.6237   -8.1340   -0.6476 O   0  0  0  0  0  0  0  0  0  0  0  0
   -7.5932   -8.2613   -0.6024 H   0  0  0  0  0  0  0  0  0  0  0  0
   -4.4296   -6.8306    1.3927 C   0  0  0  0  0  0  0  0  0  0  0  0
   -3.0244   -7.0962    1.3530 O   0  0  0  0  0  0  0  0  0  0  0  0
   -2.5596   -6.2399    1.2958 H   0  0  0  0  0  0  0  0  0  0  0  0
   -3.6616   -1.7142    0.3428 O   0  0  0  0  0  0  0  0  0  0  0  0
   -2.8467   -1.7940    1.5176 C   0  0  0  0  0  0  0  0  0  0  0  0
   -2.2319   -0.4673    1.9097 C   0  0  0  0  0  0  0  0  0  0  0  0
   -2.2928   -0.0340    3.2421 C   0  0  0  0  0  0  0  0  0  0  0  0
   -1.7347    1.1895    3.6189 C   0  0  0  0  0  0  0  0  0  0  0  0
   -1.1033    1.9945    2.6692 C   0  0  0  0  0  0  0  0  0  0  0  0
   -1.0201    1.5698    1.3406 C   0  0  0  0  0  0  0  0  0  0  0  0
   -1.5699    0.3370    0.9687 C   0  0  0  0  0  0  0  0  0  0  0  0
   -0.3835    2.3928    0.3544 C   0  0  0  0  0  0  0  0  0  0  0  0
    0.1177    3.0539   -0.4581 N   0  0  0  0  0  0  0  0  0  0  0  0
   -8.8477   -1.8719    0.8511 H   0  0  0  0  0  0  0  0  0  0  0  0
   -7.4999   -3.8696    1.1216 H   0  0  0  0  0  0  0  0  0  0  0  0
   -5.3666    0.3796    0.1209 H   0  0  0  0  0  0  0  0  0  0  0  0
  -10.6197    2.5562    1.4679 H   0  0  0  0  0  0  0  0  0  0  0  0
  -10.0880    4.2158    1.5948 H   0  0  0  0  0  0  0  0  0  0  0  0
  -10.9379    3.4666    2.9250 H   0  0  0  0  0  0  0  0  0  0  0  0
   -6.8108    0.1969    2.6919 H   0  0  0  0  0  0  0  0  0  0  0  0
   -5.6393    1.5798    4.2989 H   0  0  0  0  0  0  0  0  0  0  0  0
   -6.5023    3.7658    4.8612 H   0  0  0  0  0  0  0  0  0  0  0  0
   -9.8661    4.3629    5.6282 H   0  0  0  0  0  0  0  0  0  0  0  0
  -10.6433    6.5770    6.2321 H   0  0  0  0  0  0  0  0  0  0  0  0
   -9.9152    8.5085    4.9598 H   0  0  0  0  0  0  0  0  0  0  0  0
   -8.3938    8.2285    3.0921 H   0  0  0  0  0  0  0  0  0  0  0  0
   -7.6119    6.0175    2.4838 H   0  0  0  0  0  0  0  0  0  0  0  0
   -5.2697   -4.7560    1.7191 H   0  0  0  0  0  0  0  0  0  0  0  0
   -3.8323   -3.8917    1.1201 H   0  0  0  0  0  0  0  0  0  0  0  0
   -4.3931   -7.0095   -0.7383 H   0  0  0  0  0  0  0  0  0  0  0  0
   -4.9397   -7.6993    1.7535 H   0  0  0  0  0  0  0  0  0  0  0  0
   -4.6005   -5.9980    2.0427 H   0  0  0  0  0  0  0  0  0  0  0  0
   -2.0578   -2.4940    1.3371 H   0  0  0  0  0  0  0  0  0  0  0  0
   -3.4805   -2.1007    2.3233 H   0  0  0  0  0  0  0  0  0  0  0  0
   -2.7545   -0.6250    3.9510 H   0  0  0  0  0  0  0  0  0  0  0  0
   -1.7892    1.4992    4.6018 H   0  0  0  0  0  0  0  0  0  0  0  0
   -0.6986    2.9020    2.9479 H   0  0  0  0  0  0  0  0  0  0  0  0
   -1.4875    0.0159   -0.0086 H   0  0  0  0  0  0  0  0  0  0  0  0
  1  2  2  0
  2  3  1  0
  2 44  1  0
  3  4  2  0
  3 45  1  0
  4 23  1  0
  4  5  1  0
  5 34  1  0
  5  6  2  0
  6  1  1  0
  6 46  1  0
  7  1  1  0
  8  9  2  0
  8  7  1  0
 10 11  1  0
 10 47  1  0
 10 48  1  0
 10 49  1  0
 11 12  2  0
 12  8  1  0
 12 13  1  0
 13 14  2  0
 13 50  1  0
 14 15  1  0
 14 51  1  0
 15 16  2  0
 15 52  1  0
 16 17  1  0
 16 11  1  0
 17 18  2  0
 18 19  1  0
 18 53  1  0
 19 20  2  0
 19 54  1  0
 20 21  1  0
 20 55  1  0
 21 22  2  0
 21 56  1  0
 22 17  1  0
 22 57  1  0
 23 24  1  0
 23 58  1  0
 23 59  1  0
 24 26  1  0
 24 25  1  0
 26 31  1  0
 26 27  1  0
 26 60  1  6
 27 28  2  0
 27 29  1  0
 29 30  1  0
 31 32  1  0
 31 61  1  0
 31 62  1  0
 32 33  1  0
 34 35  1  0
 35 36  1  0
 35 63  1  0
 35 64  1  0
 36 37  2  0
 37 38  1  0
 37 65  1  0
 38 39  2  0
 38 66  1  0
 39 40  1  0
 39 67  1  0
 40 42  1  0
 40 41  2  0
 41 36  1  0
 41 68  1  0
 42 43  3  0
M  END
>  <minimizedAffinity>  (2) 
-10.21268

>  <mol_id>  (2) 
35180

>  <source_index>  (2) 
1

>  <layer>  (2) 
L3

>  <uniprot>  (2) 
P05622

>  <paff>  (2) 
6

>  <smiles>  (2) 
Cc1c(C(=O)Oc2ccc(CN[C@@H](CO)C(=O)O)c(OCc3cccc(C#N)c3)c2)cccc1-c1ccccc1

$$$$
L3:P05622:65602
     RDKit          3D

 89 93  0  0  0  0  0  0  0  0999 V2000
   -2.3497   -0.3457    3.0606 C   0  0  0  0  0  0  0  0  0  0  0  0
   -3.6203   -0.1519    2.5072 C   0  0  0  0  0  0  0  0  0  0  0  0
   -4.1844   -1.1026    1.6450 C   0  0  0  0  0  0  0  0  0  0  0  0
   -3.4626   -2.2662    1.3195 C   0  0  0  0  0  0  0  0  0  0  0  0
   -2.1953   -2.4655    1.8911 C   0  0  0  0  0  0  0  0  0  0  0  0
   -1.6499   -1.5179    2.7585 C   0  0  0  0  0  0  0  0  0  0  0  0
   -0.0889   -1.8314    3.4299 Cl  0  0  0  0  0  0  0  0  0  0  0  0
   -1.7550    0.5282    3.9327 O   0  0  0  0  0  0  0  0  0  0  0  0
   -1.3971    1.8132    3.4281 C   0  0  0  0  0  0  0  0  0  0  0  0
    1.6830    1.4754    1.1316 C   0  0  0  0  0  0  0  0  0  0  0  0
    2.6890    1.4128    2.1180 C   0  0  0  0  0  0  0  0  0  0  0  0
    2.3822    1.4907    3.4739 C   0  0  0  0  0  0  0  0  0  0  0  0
    1.0573    1.6328    3.8706 C   0  0  0  0  0  0  0  0  0  0  0  0
    0.0215    1.7136    2.9201 C   0  0  0  0  0  0  0  0  0  0  0  0
    0.3411    1.6274    1.5482 C   0  0  0  0  0  0  0  0  0  0  0  0
   -0.9255    1.7272    0.3600 Cl  0  0  0  0  0  0  0  0  0  0  0  0
    3.1318    2.3352   -2.2595 C   0  0  0  0  0  0  0  0  0  0  0  0
    3.0184    1.1063   -2.9123 C   0  0  0  0  0  0  0  0  0  0  0  0
    2.4547    0.0066   -2.2676 C   0  0  0  0  0  0  0  0  0  0  0  0
    2.0071    0.1284   -0.9536 C   0  0  0  0  0  0  0  0  0  0  0  0
    2.0917    1.3572   -0.2800 C   0  0  0  0  0  0  0  0  0  0  0  0
    2.6369    2.4628   -0.9617 C   0  0  0  0  0  0  0  0  0  0  0  0
    3.7566    3.3064   -2.9878 O   0  0  0  0  0  0  0  0  0  0  0  0
    5.0344    3.7919   -2.5693 C   0  0  0  0  0  0  0  0  0  0  0  0
    6.1589    2.8276   -2.9347 C   0  0  0  0  0  0  0  0  0  0  0  0
    7.1565    2.0777   -0.7668 N   0  0  0  0  0  0  0  0  0  0  0  0
    7.2702    2.8786   -1.9031 C   0  0  0  0  0  0  0  0  0  0  0  0
    8.2703    3.5797   -2.1047 O   0  0  0  0  0  0  0  0  0  0  0  0
    8.2256    2.1716    0.2322 C   0  0  0  0  0  0  0  0  0  0  0  0
    7.8650    1.5230    1.5616 C   0  0  0  0  0  0  0  0  0  0  0  0
    6.1068   -0.1475   -1.1355 C   0  0  0  0  0  0  0  0  0  0  0  0
    6.0156    1.2100   -0.4530 C   0  0  0  0  0  0  0  0  0  0  0  0
   -5.4140   -0.9821    1.0544 O   0  0  0  0  0  0  0  0  0  0  0  0
   -6.5889   -1.3013    1.8028 C   0  0  0  0  0  0  0  0  0  0  0  0
   -7.5144   -0.1100    1.9954 C   0  0  0  0  0  0  0  0  0  0  0  0
   -8.7655   -0.0908    1.3011 C   0  0  0  0  0  0  0  0  0  0  0  0
   -9.6910    0.9674    1.3909 C   0  0  0  0  0  0  0  0  0  0  0  0
   -9.2851    2.0357    2.2115 C   0  0  0  0  0  0  0  0  0  0  0  0
   -9.9236    3.1759    2.4924 N   0  0  0  0  0  0  0  0  0  0  0  0
   -9.0826    3.8750    3.3481 O   0  0  0  0  0  0  0  0  0  0  0  0
   -7.9109    3.1816    3.5997 N   0  0  0  0  0  0  0  0  0  0  0  0
   -8.0090    2.0377    2.9134 C   0  0  0  0  0  0  0  0  0  0  0  0
   -7.0997    0.9673    2.8185 C   0  0  0  0  0  0  0  0  0  0  0  0
   -4.0225   -3.3181    0.3831 C   0  0  0  0  0  0  0  0  0  0  0  0
   -4.8499   -4.3228    1.0448 N   0  0  0  0  0  0  0  0  0  0  0  0
   -4.2530   -4.9762    1.5578 H   0  0  0  0  0  0  0  0  0  0  0  0
   -5.7397   -5.0981    0.1478 C   0  0  1  0  0  0  0  0  0  0  0  0
   -5.7819   -6.5660    0.5903 C   0  0  0  0  0  0  0  0  0  0  0  0
   -5.3133   -7.0310    1.6204 O   0  0  0  0  0  0  0  0  0  0  0  0
   -6.5113   -7.3643   -0.2211 O   0  0  0  0  0  0  0  0  0  0  0  0
   -6.4052   -8.2516    0.1810 H   0  0  0  0  0  0  0  0  0  0  0  0
   -7.1818   -4.5567    0.0635 C   0  0  0  0  0  0  0  0  0  0  0  0
   -7.9315   -5.1872   -0.9755 O   0  0  0  0  0  0  0  0  0  0  0  0
   -8.8105   -4.7737   -0.9922 H   0  0  0  0  0  0  0  0  0  0  0  0
   -4.1499    0.7035    2.7372 H   0  0  0  0  0  0  0  0  0  0  0  0
   -1.6624   -3.3206    1.6676 H   0  0  0  0  0  0  0  0  0  0  0  0
   -2.0539    2.0897    2.6299 H   0  0  0  0  0  0  0  0  0  0  0  0
   -1.4755    2.5572    4.1931 H   0  0  0  0  0  0  0  0  0  0  0  0
    3.6739    1.3070    1.8286 H   0  0  0  0  0  0  0  0  0  0  0  0
    3.1334    1.4433    4.1799 H   0  0  0  0  0  0  0  0  0  0  0  0
    0.8297    1.6797    4.8761 H   0  0  0  0  0  0  0  0  0  0  0  0
    3.3557    1.0111   -3.8830 H   0  0  0  0  0  0  0  0  0  0  0  0
    2.3691   -0.8952   -2.7620 H   0  0  0  0  0  0  0  0  0  0  0  0
    1.6096   -0.6926   -0.4710 H   0  0  0  0  0  0  0  0  0  0  0  0
    2.6707    3.3818   -0.4934 H   0  0  0  0  0  0  0  0  0  0  0  0
    5.2187    4.7333   -3.0434 H   0  0  0  0  0  0  0  0  0  0  0  0
    5.0176    3.8922   -1.5041 H   0  0  0  0  0  0  0  0  0  0  0  0
    5.7672    1.8329   -2.9792 H   0  0  0  0  0  0  0  0  0  0  0  0
    6.5600    3.1133   -3.8847 H   0  0  0  0  0  0  0  0  0  0  0  0
    8.4389    3.2057    0.4054 H   0  0  0  0  0  0  0  0  0  0  0  0
    9.0718    1.6458   -0.1582 H   0  0  0  0  0  0  0  0  0  0  0  0
    7.0194    2.0236    1.9849 H   0  0  0  0  0  0  0  0  0  0  0  0
    8.6958    1.5974    2.2317 H   0  0  0  0  0  0  0  0  0  0  0  0
    7.6264    0.4922    1.4024 H   0  0  0  0  0  0  0  0  0  0  0  0
    5.2531   -0.7367   -0.8730 H   0  0  0  0  0  0  0  0  0  0  0  0
    6.9972   -0.6479   -0.8167 H   0  0  0  0  0  0  0  0  0  0  0  0
    6.1342   -0.0121   -2.1965 H   0  0  0  0  0  0  0  0  0  0  0  0
    5.9807    1.0595    0.6058 H   0  0  0  0  0  0  0  0  0  0  0  0
    5.1318    1.6944   -0.8124 H   0  0  0  0  0  0  0  0  0  0  0  0
   -6.2921   -1.6614    2.7657 H   0  0  0  0  0  0  0  0  0  0  0  0
   -7.1298   -2.0397    1.2487 H   0  0  0  0  0  0  0  0  0  0  0  0
   -9.0028   -0.8966    0.7016 H   0  0  0  0  0  0  0  0  0  0  0  0
  -10.5954    0.9596    0.8939 H   0  0  0  0  0  0  0  0  0  0  0  0
   -6.1942    0.9668    3.3136 H   0  0  0  0  0  0  0  0  0  0  0  0
   -3.2031   -3.8165   -0.0914 H   0  0  0  0  0  0  0  0  0  0  0  0
   -4.6538   -2.8075   -0.3138 H   0  0  0  0  0  0  0  0  0  0  0  0
   -5.3175   -5.0012   -0.8306 H   0  0  0  0  0  0  0  0  0  0  0  0
   -7.1449   -3.5045   -0.1273 H   0  0  0  0  0  0  0  0  0  0  0  0
   -7.6674   -4.7653    0.9939 H   0  0  0  0  0  0  0  0  0  0  0  0
  1  2  2  0
  2  3  1  0
  2 55  1  0
  3 33  1  0
  3  4  2  0
  4 44  1  0
  4  5  1  0
  5  6  2  0
  5 56  1  0
  6  7  1  0
  6  1  1  0
  8  1  1  0
  9  8  1  0
  9 57  1  0
  9 58  1  0
 10 11  2  0
 11 12  1  0
 11 59  1  0
 12 13  2  0
 12 60  1  0
 13 14  1  0
 13 61  1  0
 14  9  1  0
 14 15  2  0
 15 16  1  0
 15 10  1  0
 17 18  2  0
 18 19  1  0
 18 62  1  0
 19 20  2  0
 19 63  1  0
 20 21  1  0
 20 64  1  0
 21 10  1  0
 21 22  2  0
 22 17  1  0
 22 65  1  0
 23 17  1  0
 24 23  1  0
 24 66  1  0
 24 67  1  0
 25 24  1  0
 25 68  1  0
 25 69  1  0
 26 29  1  0
 26 27  1  0
 27 28  2  0
 27 25  1  0
 29 30  1  0
 29 70  1  0
 29 71  1  0
 30 72  1  0
 30 73  1  0
 30 74  1  0
 31 32  1  0
 31 75  1  0
 31 76  1  0
 31 77  1  0
 32 26  1  0
 32 78  1  0
 32 79  1  0
 33 34  1  0
 34 35  1  0
 34 80  1  0
 34 81  1  0
 35 36  1  0
 36 37  2  0
 36 82  1  0
 37 38  1  0
 37 83  1  0
 38 39  2  0
 39 40  1  0
 40 41  1  0
 41 42  2  0
 42 43  1  0
 42 38  1  0
 43 35  2  0
 43 84  1  0
 44 45  1  0
 44 85  1  0
 44 86  1  0
 45 47  1  0
 45 46  1  0
 47 52  1  0
 47 48  1  0
 47 87  1  6
 48 49  2  0
 48 50  1  0
 50 51  1  0
 52 53  1  0
 52 88  1  0
 52 89  1  0
 53 54  1  0
M  END
>  <minimizedAffinity>  (3) 
-8.74168

>  <mol_id>  (3) 
65602

>  <source_index>  (3) 
2

>  <layer>  (3) 
L3

>  <uniprot>  (3) 
P05622

>  <paff>  (3) 
6.7257999999999996

>  <smiles>  (3) 
CCN(CC)C(=O)CCOc1cccc(-c2cccc(COc3cc(OCc4ccc5nonc5c4)c(CN[C@H](CO)C(=O)O)cc3Cl)c2Cl)c1

$$$$
L3:P05622:82843
     RDKit          3D

 52 54  0  0  0  0  0  0  0  0999 V2000
   -4.1404   -1.1863    0.0468 C   0  0  0  0  0  0  0  0  0  0  0  0
   -5.2513   -0.4240    0.0114 N   0  0  0  0  0  0  0  0  0  0  0  0
   -6.4801   -1.0074    0.0496 C   0  0  0  0  0  0  0  0  0  0  0  0
   -6.5316   -2.4106    0.0925 C   0  0  0  0  0  0  0  0  0  0  0  0
   -7.5837   -3.3032    0.1091 N   0  0  0  0  0  0  0  0  0  0  0  0
   -7.0150   -4.4897    0.1502 C   0  0  0  0  0  0  0  0  0  0  0  0
   -5.6463   -4.4045    0.1479 N   0  0  0  0  0  0  0  0  0  0  0  0
   -5.3199   -3.0758    0.1004 C   0  0  0  0  0  0  0  0  0  0  0  0
   -4.0975   -2.5280    0.0676 N   0  0  0  0  0  0  0  0  0  0  0  0
   -4.7060   -5.5150    0.1917 C   0  0  0  0  0  0  0  0  0  0  0  0
   -3.9516   -5.5629    1.5205 C   0  0  0  0  0  0  0  0  0  0  0  0
   -5.3953   -6.8467   -0.1055 C   0  0  0  0  0  0  0  0  0  0  0  0
   -2.9566   -0.4644   -0.0032 N   0  0  0  0  0  0  0  0  0  0  0  0
   -2.2237   -1.1313   -0.2240 H   0  0  0  0  0  0  0  0  0  0  0  0
   -2.6710    0.3712    1.1672 C   0  0  1  0  0  0  0  0  0  0  0  0
   -2.1670   -0.4672    2.3652 C   0  0  0  0  0  0  0  0  0  0  0  0
   -3.1488   -0.5878    3.3950 O   0  0  0  0  0  0  0  0  0  0  0  0
   -3.2510    0.3008    3.7837 H   0  0  0  0  0  0  0  0  0  0  0  0
   -0.8876    2.1270    1.8814 C   0  0  0  0  0  0  0  0  0  0  0  0
   -1.6838    1.4836    0.7536 C   0  0  0  0  0  0  0  0  0  0  0  0
   -7.6427   -0.2345    0.0487 N   0  0  0  0  0  0  0  0  0  0  0  0
   -7.4357    0.7257   -0.2199 H   0  0  0  0  0  0  0  0  0  0  0  0
   -8.4912   -0.3826    1.2131 C   0  0  0  0  0  0  0  0  0  0  0  0
   -8.5414    0.9288    1.9623 C   0  0  0  0  0  0  0  0  0  0  0  0
   -7.4630    1.3448    2.7563 C   0  0  0  0  0  0  0  0  0  0  0  0
   -7.5149    2.5622    3.4380 C   0  0  0  0  0  0  0  0  0  0  0  0
   -8.6406    3.3772    3.3288 C   0  0  0  0  0  0  0  0  0  0  0  0
   -9.7147    2.9785    2.5356 C   0  0  0  0  0  0  0  0  0  0  0  0
   -9.6651    1.7619    1.8540 C   0  0  0  0  0  0  0  0  0  0  0  0
   -7.5375   -5.3791    0.1806 H   0  0  0  0  0  0  0  0  0  0  0  0
   -3.9838   -5.3479   -0.5800 H   0  0  0  0  0  0  0  0  0  0  0  0
   -4.6448   -5.7293    2.3184 H   0  0  0  0  0  0  0  0  0  0  0  0
   -3.4446   -4.6336    1.6765 H   0  0  0  0  0  0  0  0  0  0  0  0
   -3.2374   -6.3593    1.4966 H   0  0  0  0  0  0  0  0  0  0  0  0
   -6.1267   -7.0460    0.6496 H   0  0  0  0  0  0  0  0  0  0  0  0
   -4.6676   -7.6311   -0.1131 H   0  0  0  0  0  0  0  0  0  0  0  0
   -5.8740   -6.7951   -1.0610 H   0  0  0  0  0  0  0  0  0  0  0  0
   -3.5749    0.8303    1.5093 H   0  0  0  0  0  0  0  0  0  0  0  0
   -1.2971    0.0040    2.7729 H   0  0  0  0  0  0  0  0  0  0  0  0
   -1.9474   -1.4510    2.0062 H   0  0  0  0  0  0  0  0  0  0  0  0
   -0.2412    2.8783    1.4781 H   0  0  0  0  0  0  0  0  0  0  0  0
   -0.3018    1.3803    2.3755 H   0  0  0  0  0  0  0  0  0  0  0  0
   -1.5604    2.5744    2.5829 H   0  0  0  0  0  0  0  0  0  0  0  0
   -0.9863    1.0607    0.0611 H   0  0  0  0  0  0  0  0  0  0  0  0
   -2.2881    2.2667    0.3457 H   0  0  0  0  0  0  0  0  0  0  0  0
   -8.0935   -1.1441    1.8510 H   0  0  0  0  0  0  0  0  0  0  0  0
   -9.4782   -0.6586    0.9055 H   0  0  0  0  0  0  0  0  0  0  0  0
   -6.6255    0.7472    2.8373 H   0  0  0  0  0  0  0  0  0  0  0  0
   -6.7187    2.8591    4.0236 H   0  0  0  0  0  0  0  0  0  0  0  0
   -8.6785    4.2756    3.8353 H   0  0  0  0  0  0  0  0  0  0  0  0
  -10.5469    3.5830    2.4523 H   0  0  0  0  0  0  0  0  0  0  0  0
  -10.4617    1.4725    1.2652 H   0  0  0  0  0  0  0  0  0  0  0  0
  1  2  2  0
  2  3  1  0
  3 21  1  0
  3  4  2  0
  4  5  1  0
  5  6  2  0
  6  7  1  0
  6 30  1  0
  7 10  1  0
  7  8  1  0
  8  9  2  0
  8  4  1  0
  9  1  1  0
 10 11  1  0
 10 12  1  0
 10 31  1  0
 11 32  1  0
 11 33  1  0
 11 34  1  0
 12 35  1  0
 12 36  1  0
 12 37  1  0
 13  1  1  0
 13 14  1  0
 15 16  1  0
 15 13  1  0
 15 38  1  1
 16 17  1  0
 16 39  1  0
 16 40  1  0
 17 18  1  0
 19 20  1  0
 19 41  1  0
 19 42  1  0
 19 43  1  0
 20 15  1  0
 20 44  1  0
 20 45  1  0
 21 23  1  0
 21 22  1  0
 23 24  1  0
 23 46  1  0
 23 47  1  0
 24 25  2  0
 25 26  1  0
 25 48  1  0
 26 27  2  0
 26 49  1  0
 27 28  1  0
 27 50  1  0
 28 29  2  0
 28 51  1  0
 29 24  1  0
 29 52  1  0
M  END
>  <minimizedAffinity>  (4) 
-7.94965

>  <mol_id>  (4) 
82843

>  <source_index>  (4) 
3

>  <layer>  (4) 
L3

>  <uniprot>  (4) 
P05622

>  <paff>  (4) 
6.8446999999999996

>  <smiles>  (4) 
CC[C@H](CO)Nc3nc(NCc1ccccc1)c2ncn(C(C)C)c2n3

$$$$
L3:P05622:98621
     RDKit          3D

 75 79  0  0  0  0  0  0  0  0999 V2000
    0.2615   -7.3004    5.7592 C   0  0  0  0  0  0  0  0  0  0  0  0
   -0.2209   -8.3673    5.0011 C   0  0  0  0  0  0  0  0  0  0  0  0
   -0.9404   -8.1215    3.8297 C   0  0  0  0  0  0  0  0  0  0  0  0
   -1.1805   -6.8105    3.4193 C   0  0  0  0  0  0  0  0  0  0  0  0
   -0.6733   -5.7185    4.1427 C   0  0  0  0  0  0  0  0  0  0  0  0
    0.0182   -5.9886    5.3357 C   0  0  0  0  0  0  0  0  0  0  0  0
   -0.9369   -4.3113    3.6678 C   0  0  0  0  0  0  0  0  0  0  0  0
    0.0127   -3.3430    4.1780 N   0  0  0  0  0  0  0  0  0  0  0  0
   -0.0978   -2.0241    3.7699 C   0  0  0  0  0  0  0  0  0  0  0  0
   -1.2226   -1.4432    3.4586 N   0  0  0  0  0  0  0  0  0  0  0  0
   -1.1967   -0.1447    2.9928 C   0  0  0  0  0  0  0  0  0  0  0  0
   -0.1143    0.5897    2.8894 N   0  0  0  0  0  0  0  0  0  0  0  0
    1.0657    0.0139    3.2422 C   0  0  0  0  0  0  0  0  0  0  0  0
    2.3849    0.4279    3.2655 C   0  0  0  0  0  0  0  0  0  0  0  0
    3.1007   -0.7308    3.6828 C   0  0  0  0  0  0  0  0  0  0  0  0
    2.3113   -1.7836    3.9203 N   0  0  0  0  0  0  0  0  0  0  0  0
    1.0827   -1.2819    3.6657 N   0  0  0  0  0  0  0  0  0  0  0  0
   -2.3539    0.4348    2.5646 N   0  0  0  0  0  0  0  0  0  0  0  0
   -3.6613    0.2102    3.1605 C   0  0  0  0  0  0  0  0  0  0  0  0
   -4.6630   -0.5549    2.2152 C   0  0  0  0  0  0  0  0  0  0  0  0
   -4.3269   -2.0800    2.3545 C   0  0  0  0  0  0  0  0  0  0  0  0
   -5.2946   -3.1210    1.7752 C   0  0  0  0  0  0  0  0  0  0  0  0
   -5.0115   -4.5476    2.2725 C   0  0  0  0  0  0  0  0  0  0  0  0
   -3.7218   -5.1514    1.7226 C   0  0  0  0  0  0  0  0  0  0  0  0
   -3.2775   -6.3663    2.5424 C   0  0  0  0  0  0  0  0  0  0  0  0
   -1.8926   -6.6249    2.2604 O   0  0  0  0  0  0  0  0  0  0  0  0
   -4.4825   -0.0421    0.7611 C   0  0  0  0  0  0  0  0  0  0  0  0
   -5.6828   -0.2475   -0.1569 C   0  0  0  0  0  0  0  0  0  0  0  0
   -6.8937    0.3265    0.4223 N   0  0  0  0  0  0  0  0  0  0  0  0
   -7.2233   -0.3435    1.6754 C   0  0  0  0  0  0  0  0  0  0  0  0
   -6.1032   -0.2244    2.7176 C   0  0  0  0  0  0  0  0  0  0  0  0
    0.9821   -3.6648    4.1446 H   0  0  0  0  0  0  0  0  0  0  0  0
   -2.1818    1.4027    2.3074 H   0  0  0  0  0  0  0  0  0  0  0  0
   -6.7460    1.3207    0.5961 H   0  0  0  0  0  0  0  0  0  0  0  0
    2.9310    1.7745    2.8992 C   0  0  0  0  0  0  0  0  0  0  0  0
    4.0360    2.2271    3.8565 C   0  0  0  0  0  0  0  0  0  0  0  0
    3.4510    1.7867    1.4573 C   0  0  0  0  0  0  0  0  0  0  0  0
    1.3411   -6.1814    7.5613 C   0  0  0  0  0  0  0  0  0  0  0  0
    0.9731   -7.4002    6.9231 O   0  0  0  0  0  0  0  0  0  0  0  0
   -0.0462   -9.3377    5.3057 H   0  0  0  0  0  0  0  0  0  0  0  0
   -1.2948   -8.9108    3.2672 H   0  0  0  0  0  0  0  0  0  0  0  0
    0.3544   -5.2019    5.9128 H   0  0  0  0  0  0  0  0  0  0  0  0
   -1.9175   -4.0244    3.9858 H   0  0  0  0  0  0  0  0  0  0  0  0
   -0.8415   -4.3151    2.6021 H   0  0  0  0  0  0  0  0  0  0  0  0
    4.1267   -0.7553    3.7911 H   0  0  0  0  0  0  0  0  0  0  0  0
   -4.0879    1.1598    3.4076 H   0  0  0  0  0  0  0  0  0  0  0  0
   -3.5113   -0.4056    4.0226 H   0  0  0  0  0  0  0  0  0  0  0  0
   -4.2382   -2.2853    3.4009 H   0  0  0  0  0  0  0  0  0  0  0  0
   -3.4441   -2.1989    1.7617 H   0  0  0  0  0  0  0  0  0  0  0  0
   -5.2098   -3.1088    0.7086 H   0  0  0  0  0  0  0  0  0  0  0  0
   -6.2793   -2.8583    2.1011 H   0  0  0  0  0  0  0  0  0  0  0  0
   -5.8280   -5.1743    1.9801 H   0  0  0  0  0  0  0  0  0  0  0  0
   -4.8978   -4.4887    3.3348 H   0  0  0  0  0  0  0  0  0  0  0  0
   -2.9504   -4.4105    1.7528 H   0  0  0  0  0  0  0  0  0  0  0  0
   -3.9026   -5.4719    0.7179 H   0  0  0  0  0  0  0  0  0  0  0  0
   -3.8659   -7.2184    2.2728 H   0  0  0  0  0  0  0  0  0  0  0  0
   -3.4090   -6.1720    3.5864 H   0  0  0  0  0  0  0  0  0  0  0  0
   -3.6467   -0.5538    0.3316 H   0  0  0  0  0  0  0  0  0  0  0  0
   -4.3454    1.0164    0.8359 H   0  0  0  0  0  0  0  0  0  0  0  0
   -5.8313   -1.2963   -0.3081 H   0  0  0  0  0  0  0  0  0  0  0  0
   -5.4862    0.2433   -1.0872 H   0  0  0  0  0  0  0  0  0  0  0  0
   -7.3967   -1.3802    1.4750 H   0  0  0  0  0  0  0  0  0  0  0  0
   -8.0940    0.1303    2.0782 H   0  0  0  0  0  0  0  0  0  0  0  0
   -6.3312   -0.8933    3.5210 H   0  0  0  0  0  0  0  0  0  0  0  0
   -6.0805    0.8074    2.9999 H   0  0  0  0  0  0  0  0  0  0  0  0
    2.1196    2.4672    2.9816 H   0  0  0  0  0  0  0  0  0  0  0  0
    4.8618    1.5496    3.7938 H   0  0  0  0  0  0  0  0  0  0  0  0
    3.6584    2.2375    4.8576 H   0  0  0  0  0  0  0  0  0  0  0  0
    4.3603    3.2106    3.5874 H   0  0  0  0  0  0  0  0  0  0  0  0
    4.2633    1.0964    1.3652 H   0  0  0  0  0  0  0  0  0  0  0  0
    3.7893    2.7708    1.2085 H   0  0  0  0  0  0  0  0  0  0  0  0
    2.6633    1.5014    0.7917 H   0  0  0  0  0  0  0  0  0  0  0  0
    1.8895   -6.3978    8.4542 H   0  0  0  0  0  0  0  0  0  0  0  0
    0.4594   -5.6283    7.8094 H   0  0  0  0  0  0  0  0  0  0  0  0
    1.9509   -5.6023    6.8997 H   0  0  0  0  0  0  0  0  0  0  0  0
  1  2  2  0
  2  3  1  0
  2 40  1  0
  3  4  2  0
  3 41  1  0
  4  5  1  0
  5  6  2  0
  5  7  1  0
  6  1  1  0
  6 42  1  0
  7  8  1  0
  7 43  1  0
  7 44  1  0
  8  9  1  0
  8 32  1  0
  9 10  2  0
 10 11  1  0
 11 12  2  0
 11 18  1  0
 12 13  1  0
 13 14  2  0
 14 35  1  0
 14 15  1  0
 15 16  2  0
 15 45  1  0
 16 17  1  0
 17  9  1  0
 17 13  1  0
 18 19  1  0
 18 33  1  0
 19 20  1  0
 19 46  1  0
 19 47  1  0
 20 21  1  0
 20 27  1  0
 21 22  1  0
 21 48  1  0
 21 49  1  0
 22 23  1  0
 22 50  1  0
 22 51  1  0
 23 24  1  0
 23 52  1  0
 23 53  1  0
 24 25  1  0
 24 54  1  0
 24 55  1  0
 25 26  1  0
 25 56  1  0
 25 57  1  0
 26  4  1  0
 27 28  1  0
 27 58  1  0
 27 59  1  0
 28 29  1  0
 28 60  1  0
 28 61  1  0
 29 30  1  0
 29 34  1  0
 30 31  1  0
 30 62  1  0
 30 63  1  0
 31 20  1  0
 31 64  1  0
 31 65  1  0
 35 36  1  0
 35 37  1  0
 35 66  1  0
 36 67  1  0
 36 68  1  0
 36 69  1  0
 37 70  1  0
 37 71  1  0
 37 72  1  0
 38 39  1  0
 38 73  1  0
 38 74  1  0
 38 75  1  0
 39  1  1  0
M  END
>  <minimizedAffinity>  (5) 
-8.00335

>  <mol_id>  (5) 
98621

>  <source_index>  (5) 
4

>  <layer>  (5) 
L3

>  <uniprot>  (5) 
P05622

>  <paff>  (5) 
6.5271999999999997

>  <smiles>  (5) 
COc1ccc2c(c1)CNc1nc(nc3c(C(C)C)cnn13)NCC1(CCCCCO2)CCNCC1

$$$$
L3:P05622:113810
     RDKit          3D

 65 68  0  0  0  0  0  0  0  0999 V2000
   -4.4074   -0.4450    1.6468 C   0  0  0  0  0  0  0  0  0  0  0  0
   -3.1078   -0.5031    1.1418 C   0  0  0  0  0  0  0  0  0  0  0  0
   -1.9932   -0.1337    1.9380 C   0  0  0  0  0  0  0  0  0  0  0  0
   -0.6518   -0.1485    1.5059 C   0  0  0  0  0  0  0  0  0  0  0  0
    0.3533    0.1674    2.3341 N   0  0  0  0  0  0  0  0  0  0  0  0
    0.0426    0.5510    3.5809 C   0  0  0  0  0  0  0  0  0  0  0  0
    1.1735    0.8954    4.4982 C   0  0  0  0  0  0  0  0  0  0  0  0
   -1.2014    0.6129    4.0759 N   0  0  0  0  0  0  0  0  0  0  0  0
   -2.2012    0.2710    3.2602 C   0  0  0  0  0  0  0  0  0  0  0  0
   -3.4982    0.3180    3.7551 C   0  0  0  0  0  0  0  0  0  0  0  0
   -4.6047   -0.0311    2.9727 C   0  0  0  0  0  0  0  0  0  0  0  0
   -0.3678   -0.5247    0.1795 N   0  0  0  0  0  0  0  0  0  0  0  0
    0.2596    0.1749   -0.2079 H   0  0  0  0  0  0  0  0  0  0  0  0
    0.1260   -1.8709   -0.1412 C   0  0  2  0  0  0  0  0  0  0  0  0
    1.3060   -1.8589   -1.1176 C   0  0  0  0  0  0  0  0  0  0  0  0
   -1.0093   -2.8412   -0.4322 C   0  0  0  0  0  0  0  0  0  0  0  0
   -1.4814   -2.9743   -1.7520 C   0  0  0  0  0  0  0  0  0  0  0  0
   -2.4942   -3.8791   -2.0824 C   0  0  0  0  0  0  0  0  0  0  0  0
   -3.0255   -3.8986   -3.3757 N   0  0  0  0  0  0  0  0  0  0  0  0
   -3.1131   -4.5971   -1.0587 C   0  0  0  0  0  0  0  0  0  0  0  0
   -2.6654   -4.4971    0.2666 C   0  0  0  0  0  0  0  0  0  0  0  0
   -1.6088   -3.6222    0.5645 C   0  0  0  0  0  0  0  0  0  0  0  0
   -2.3686   -3.6269   -4.0992 H   0  0  0  0  0  0  0  0  0  0  0  0
   -3.5186   -4.7549   -3.6093 H   0  0  0  0  0  0  0  0  0  0  0  0
   -3.2969   -5.3088    1.3678 C   0  0  0  0  0  0  0  0  0  0  0  0
   -2.4037   -6.0539    2.0796 F   0  0  0  0  0  0  0  0  0  0  0  0
   -3.9466   -4.5341    2.2830 F   0  0  0  0  0  0  0  0  0  0  0  0
   -4.2259   -6.1902    0.9009 F   0  0  0  0  0  0  0  0  0  0  0  0
   -5.9056   -0.0034    3.4109 O   0  0  0  0  0  0  0  0  0  0  0  0
   -6.5296    1.2654    3.5453 C   0  0  0  0  0  0  0  0  0  0  0  0
   -5.5337   -0.7778    0.9421 O   0  0  0  0  0  0  0  0  0  0  0  0
   -5.5560   -2.0299    0.2552 C   0  0  0  0  0  0  0  0  0  0  0  0
   -6.8963   -2.7047    0.5124 C   0  0  0  0  0  0  0  0  0  0  0  0
   -7.4143   -3.6670   -0.5466 C   0  0  0  0  0  0  0  0  0  0  0  0
   -6.9081   -4.2069    0.7571 C   0  0  0  0  0  0  0  0  0  0  0  0
   -7.9244   -1.8548    1.2338 C   0  0  0  0  0  0  0  0  0  0  0  0
   -9.1329    0.2237    1.1080 C   0  0  0  0  0  0  0  0  0  0  0  0
   -8.3208   -0.7398    0.3845 N   0  0  0  0  0  0  0  0  0  0  0  0
   -7.4853   -0.2844    0.0138 H   0  0  0  0  0  0  0  0  0  0  0  0
   -2.9548   -0.8205    0.1718 H   0  0  0  0  0  0  0  0  0  0  0  0
    2.1005    0.8031    3.9718 H   0  0  0  0  0  0  0  0  0  0  0  0
    1.1703    0.2280    5.3345 H   0  0  0  0  0  0  0  0  0  0  0  0
    1.0584    1.9014    4.8442 H   0  0  0  0  0  0  0  0  0  0  0  0
   -3.6506    0.6198    4.7302 H   0  0  0  0  0  0  0  0  0  0  0  0
    0.5751   -2.2833    0.7381 H   0  0  0  0  0  0  0  0  0  0  0  0
    0.9868   -1.4606   -2.0580 H   0  0  0  0  0  0  0  0  0  0  0  0
    1.6643   -2.8575   -1.2563 H   0  0  0  0  0  0  0  0  0  0  0  0
    2.0913   -1.2502   -0.7206 H   0  0  0  0  0  0  0  0  0  0  0  0
   -1.0689   -2.3885   -2.4948 H   0  0  0  0  0  0  0  0  0  0  0  0
   -3.9125   -5.2111   -1.2801 H   0  0  0  0  0  0  0  0  0  0  0  0
   -1.2672   -3.5530    1.5359 H   0  0  0  0  0  0  0  0  0  0  0  0
   -7.5332    1.1343    3.8925 H   0  0  0  0  0  0  0  0  0  0  0  0
   -6.5423    1.7590    2.5960 H   0  0  0  0  0  0  0  0  0  0  0  0
   -5.9835    1.8587    4.2486 H   0  0  0  0  0  0  0  0  0  0  0  0
   -5.4308   -1.8667   -0.7948 H   0  0  0  0  0  0  0  0  0  0  0  0
   -4.7608   -2.6530    0.6077 H   0  0  0  0  0  0  0  0  0  0  0  0
   -6.8532   -3.8256   -1.4438 H   0  0  0  0  0  0  0  0  0  0  0  0
   -8.3264   -3.7610   -1.0981 H   0  0  0  0  0  0  0  0  0  0  0  0
   -5.9866   -4.7498    0.7881 H   0  0  0  0  0  0  0  0  0  0  0  0
   -7.3111   -4.8438    1.5166 H   0  0  0  0  0  0  0  0  0  0  0  0
   -8.7829   -2.4515    1.4615 H   0  0  0  0  0  0  0  0  0  0  0  0
   -7.4995   -1.4770    2.1402 H   0  0  0  0  0  0  0  0  0  0  0  0
  -10.0052   -0.2623    1.4923 H   0  0  0  0  0  0  0  0  0  0  0  0
   -9.4260    1.0116    0.4460 H   0  0  0  0  0  0  0  0  0  0  0  0
   -8.5655    0.6313    1.9184 H   0  0  0  0  0  0  0  0  0  0  0  0
  1  2  2  0
  2  3  1  0
  2 40  1  0
  3  4  2  0
  4 12  1  0
  4  5  1  0
  5  6  2  0
  6  7  1  0
  6  8  1  0
  7 41  1  0
  7 42  1  0
  7 43  1  0
  8  9  2  0
  9 10  1  0
  9  3  1  0
 10 11  2  0
 10 44  1  0
 11 29  1  0
 11  1  1  0
 12 14  1  0
 12 13  1  0
 14 15  1  0
 14 16  1  0
 14 45  1  1
 15 46  1  0
 15 47  1  0
 15 48  1  0
 16 17  2  0
 17 18  1  0
 17 49  1  0
 18 19  1  0
 18 20  2  0
 19 23  1  0
 19 24  1  0
 20 21  1  0
 20 50  1  0
 21 25  1  0
 21 22  2  0
 22 16  1  0
 22 51  1  0
 25 26  1  0
 25 27  1  0
 25 28  1  0
 29 30  1  0
 30 52  1  0
 30 53  1  0
 30 54  1  0
 31  1  1  0
 32 31  1  0
 32 55  1  0
 32 56  1  0
 33 32  1  0
 33 34  1  0
 34 35  1  0
 34 57  1  0
 34 58  1  0
 35 33  1  0
 35 59  1  0
 35 60  1  0
 36 33  1  0
 36 61  1  0
 36 62  1  0
 37 38  1  0
 37 63  1  0
 37 64  1  0
 37 65  1  0
 38 36  1  0
 38 39  1  0
M  END
>  <minimizedAffinity>  (6) 
-7.70281

>  <mol_id>  (6) 
113810

>  <source_index>  (6) 
5

>  <layer>  (6) 
L3

>  <uniprot>  (6) 
P05622

>  <paff>  (6) 
8

>  <smiles>  (6) 
CNCC1(COc2cc3c(N[C@H](C)c4cc(N)cc(C(F)(F)F)c4)nc(C)nc3cc2OC)CC1

$$$$
L3:P05622:114084
     RDKit          3D

 74 78  0  0  0  0  0  0  0  0999 V2000
    1.1359    1.6112    2.6920 C   0  0  0  0  0  0  0  0  0  0  0  0
    0.1225    2.2651    3.4493 C   0  0  0  0  0  0  0  0  0  0  0  0
   -1.0937    1.7380    3.2719 N   0  0  0  0  0  0  0  0  0  0  0  0
   -0.8470    0.7535    2.3749 N   0  0  0  0  0  0  0  0  0  0  0  0
   -1.8205   -0.1184    1.8897 C   0  0  0  0  0  0  0  0  0  0  0  0
   -1.4551   -1.0288    1.0430 N   0  0  0  0  0  0  0  0  0  0  0  0
   -0.1237   -1.1647    0.7008 C   0  0  0  0  0  0  0  0  0  0  0  0
    0.8192   -0.3779    1.1645 N   0  0  0  0  0  0  0  0  0  0  0  0
    0.4583    0.6172    2.0135 C   0  0  0  0  0  0  0  0  0  0  0  0
    0.1915   -2.2241   -0.1357 N   0  0  0  0  0  0  0  0  0  0  0  0
   -0.8369   -2.8645   -0.9607 C   0  0  0  0  0  0  0  0  0  0  0  0
   -1.7398   -3.8220   -0.1692 C   0  0  0  0  0  0  0  0  0  0  0  0
   -2.8709   -4.3480   -1.0571 C   0  0  0  0  0  0  0  0  0  0  0  0
   -4.0436   -4.9501   -0.2703 C   0  0  0  0  0  0  0  0  0  0  0  0
   -5.1725   -3.9417   -0.0035 C   0  0  0  0  0  0  0  0  0  0  0  0
   -5.0477   -3.3601    1.3067 O   0  0  0  0  0  0  0  0  0  0  0  0
   -5.8243   -2.2310    1.4677 C   0  0  0  0  0  0  0  0  0  0  0  0
   -7.1640   -2.1917    1.0502 C   0  0  0  0  0  0  0  0  0  0  0  0
   -7.9346   -1.0386    1.2312 C   0  0  0  0  0  0  0  0  0  0  0  0
   -7.3809    0.0970    1.8402 C   0  0  0  0  0  0  0  0  0  0  0  0
   -6.0523    0.0398    2.2942 C   0  0  0  0  0  0  0  0  0  0  0  0
   -5.2644   -1.1199    2.1295 C   0  0  0  0  0  0  0  0  0  0  0  0
   -3.8704   -1.1713    2.7099 C   0  0  0  0  0  0  0  0  0  0  0  0
   -3.1125    0.0212    2.3606 N   0  0  0  0  0  0  0  0  0  0  0  0
   -3.1730    0.7504    3.0736 H   0  0  0  0  0  0  0  0  0  0  0  0
   -8.2026    1.3523    2.0049 C   0  0  0  0  0  0  0  0  0  0  0  0
   -7.5039    2.5016    1.7797 F   0  0  0  0  0  0  0  0  0  0  0  0
   -9.2655    1.3915    1.1548 F   0  0  0  0  0  0  0  0  0  0  0  0
   -8.7222    1.4763    3.2561 F   0  0  0  0  0  0  0  0  0  0  0  0
    3.3883    1.0204    3.6063 C   0  0  0  0  0  0  0  0  0  0  0  0
    2.6033    1.9159    2.6497 C   0  0  0  0  0  0  0  0  0  0  0  0
    3.1614    1.7985    1.2269 C   0  0  0  0  0  0  0  0  0  0  0  0
    1.5671   -2.7077   -0.2557 C   0  0  0  0  0  0  0  0  0  0  0  0
    2.1563   -2.4030   -1.6430 C   0  0  0  0  0  0  0  0  0  0  0  0
    3.6179   -2.8371   -1.8049 C   0  0  0  0  0  0  0  0  0  0  0  0
    4.1146   -2.5852   -3.2335 C   0  0  0  0  0  0  0  0  0  0  0  0
    3.4736   -1.4557   -3.9118 N   0  0  0  0  0  0  0  0  0  0  0  0
    3.1017   -0.4167   -2.9603 C   0  0  0  0  0  0  0  0  0  0  0  0
    2.0322   -0.9012   -1.9721 C   0  0  0  0  0  0  0  0  0  0  0  0
    2.6310   -1.7814   -4.3827 H   0  0  0  0  0  0  0  0  0  0  0  0
    0.3082    3.0661    4.0730 H   0  0  0  0  0  0  0  0  0  0  0  0
   -0.3529   -3.4183   -1.7379 H   0  0  0  0  0  0  0  0  0  0  0  0
   -1.4616   -2.0874   -1.3491 H   0  0  0  0  0  0  0  0  0  0  0  0
   -2.1604   -3.3007    0.6652 H   0  0  0  0  0  0  0  0  0  0  0  0
   -1.1531   -4.6496    0.1711 H   0  0  0  0  0  0  0  0  0  0  0  0
   -2.4717   -5.1043   -1.7001 H   0  0  0  0  0  0  0  0  0  0  0  0
   -3.2562   -3.5112   -1.6014 H   0  0  0  0  0  0  0  0  0  0  0  0
   -3.6760   -5.3061    0.6694 H   0  0  0  0  0  0  0  0  0  0  0  0
   -4.4548   -5.7390   -0.8648 H   0  0  0  0  0  0  0  0  0  0  0  0
   -6.1144   -4.4445   -0.0745 H   0  0  0  0  0  0  0  0  0  0  0  0
   -5.1085   -3.1592   -0.7305 H   0  0  0  0  0  0  0  0  0  0  0  0
   -7.5847   -3.0223    0.6051 H   0  0  0  0  0  0  0  0  0  0  0  0
   -8.9167   -1.0233    0.9147 H   0  0  0  0  0  0  0  0  0  0  0  0
   -5.6428    0.8652    2.7591 H   0  0  0  0  0  0  0  0  0  0  0  0
   -3.3637   -2.0321    2.3262 H   0  0  0  0  0  0  0  0  0  0  0  0
   -3.9480   -1.2243    3.7758 H   0  0  0  0  0  0  0  0  0  0  0  0
    4.4286    1.2643    3.5505 H   0  0  0  0  0  0  0  0  0  0  0  0
    3.2470   -0.0043    3.3325 H   0  0  0  0  0  0  0  0  0  0  0  0
    3.0391    1.1738    4.6060 H   0  0  0  0  0  0  0  0  0  0  0  0
    2.7212    2.9299    2.9702 H   0  0  0  0  0  0  0  0  0  0  0  0
    3.0543    0.7907    0.8838 H   0  0  0  0  0  0  0  0  0  0  0  0
    4.1971    2.0672    1.2267 H   0  0  0  0  0  0  0  0  0  0  0  0
    2.6223    2.4557    0.5770 H   0  0  0  0  0  0  0  0  0  0  0  0
    1.5778   -3.7661   -0.0989 H   0  0  0  0  0  0  0  0  0  0  0  0
    2.1629   -2.2062    0.4780 H   0  0  0  0  0  0  0  0  0  0  0  0
    1.5786   -2.9840   -2.3312 H   0  0  0  0  0  0  0  0  0  0  0  0
    3.6984   -3.8814   -1.5862 H   0  0  0  0  0  0  0  0  0  0  0  0
    4.2190   -2.2637   -1.1305 H   0  0  0  0  0  0  0  0  0  0  0  0
    3.9329   -3.4678   -3.8105 H   0  0  0  0  0  0  0  0  0  0  0  0
    5.1536   -2.3417   -3.1548 H   0  0  0  0  0  0  0  0  0  0  0  0
    2.7189    0.4247   -3.4991 H   0  0  0  0  0  0  0  0  0  0  0  0
    3.9744   -0.1521   -2.4006 H   0  0  0  0  0  0  0  0  0  0  0  0
    1.0673   -0.7237   -2.3990 H   0  0  0  0  0  0  0  0  0  0  0  0
    2.1691   -0.3598   -1.0594 H   0  0  0  0  0  0  0  0  0  0  0  0
  1  2  1  0
  2  3  2  0
  2 41  1  0
  3  4  1  0
  4  5  1  0
  5  6  2  0
  6  7  1  0
  7  8  2  0
  7 10  1  0
  8  9  1  0
  9  1  2  0
  9  4  1  0
 10 33  1  0
 10 11  1  0
 11 12  1  0
 11 42  1  0
 11 43  1  0
 12 13  1  0
 12 44  1  0
 12 45  1  0
 13 14  1  0
 13 46  1  0
 13 47  1  0
 14 15  1  0
 14 48  1  0
 14 49  1  0
 15 16  1  0
 15 50  1  0
 15 51  1  0
 16 17  1  0
 17 18  2  0
 18 19  1  0
 18 52  1  0
 19 20  2  0
 19 53  1  0
 20 26  1  0
 20 21  1  0
 21 22  2  0
 21 54  1  0
 22 23  1  0
 22 17  1  0
 23 24  1  0
 23 55  1  0
 23 56  1  0
 24  5  1  0
 24 25  1  0
 26 27  1  0
 26 28  1  0
 26 29  1  0
 30 31  1  0
 30 57  1  0
 30 58  1  0
 30 59  1  0
 31 32  1  0
 31  1  1  0
 31 60  1  0
 32 61  1  0
 32 62  1  0
 32 63  1  0
 33 34  1  0
 33 64  1  0
 33 65  1  0
 34 35  1  0
 34 66  1  0
 35 36  1  0
 35 67  1  0
 35 68  1  0
 36 37  1  0
 36 69  1  0
 36 70  1  0
 37 38  1  0
 37 40  1  0
 38 39  1  0
 38 71  1  0
 38 72  1  0
 39 34  1  0
 39 73  1  0
 39 74  1  0
M  END
>  <minimizedAffinity>  (7) 
-9.64623

>  <mol_id>  (7) 
114084

>  <source_index>  (7) 
6

>  <layer>  (7) 
L3

>  <uniprot>  (7) 
P05622

>  <paff>  (7) 
7.0362

>  <smiles>  (7) 
CC(C)c1cnn2c3nc(nc12)N(CC1CCNCC1)CCCCCOc1ccc(C(F)(F)F)cc1CN3

$$$$
L3:P05622:123867
     RDKit          3D

 54 57  0  0  0  0  0  0  0  0999 V2000
   -6.8144   -1.9103    0.6644 C   0  0  0  0  0  0  0  0  0  0  0  0
   -7.2463   -3.0565   -0.0037 C   0  0  0  0  0  0  0  0  0  0  0  0
   -6.7043   -4.3115    0.2536 C   0  0  0  0  0  0  0  0  0  0  0  0
   -7.2081   -5.3476   -0.4282 N   0  0  0  0  0  0  0  0  0  0  0  0
   -6.7117   -6.5709   -0.1698 C   0  0  0  0  0  0  0  0  0  0  0  0
   -5.6946   -6.8175    0.7325 C   0  0  0  0  0  0  0  0  0  0  0  0
   -5.1061   -5.7472    1.4089 C   0  0  0  0  0  0  0  0  0  0  0  0
   -5.6661   -4.4496    1.2068 C   0  0  0  0  0  0  0  0  0  0  0  0
   -5.2502   -3.2905    1.9013 C   0  0  0  0  0  0  0  0  0  0  0  0
   -5.8326   -2.0492    1.6453 C   0  0  0  0  0  0  0  0  0  0  0  0
   -8.5569   -0.3247    1.0130 C   0  0  0  0  0  0  0  0  0  0  0  0
   -7.2916   -0.6460    0.4478 O   0  0  0  0  0  0  0  0  0  0  0  0
   -4.0744   -5.9318    2.3478 N   0  0  0  0  0  0  0  0  0  0  0  0
   -4.1409   -5.2633    3.1084 H   0  0  0  0  0  0  0  0  0  0  0  0
   -2.6800   -6.1797    1.9582 C   0  0  2  0  0  0  0  0  0  0  0  0
   -2.0226   -7.0354    3.0475 C   0  0  0  0  0  0  0  0  0  0  0  0
   -1.9080   -4.8880    1.7638 C   0  0  0  0  0  0  0  0  0  0  0  0
   -1.1306   -4.3168    2.7837 C   0  0  0  0  0  0  0  0  0  0  0  0
   -0.4457   -3.1195    2.5700 C   0  0  0  0  0  0  0  0  0  0  0  0
   -0.5211   -2.4789    1.3338 C   0  0  0  0  0  0  0  0  0  0  0  0
   -1.2712   -3.0390    0.2940 C   0  0  0  0  0  0  0  0  0  0  0  0
   -1.9553   -4.2327    0.5258 C   0  0  0  0  0  0  0  0  0  0  0  0
   -2.6764   -4.7658   -0.4720 F   0  0  0  0  0  0  0  0  0  0  0  0
   -1.3917   -2.3629   -1.0381 C   0  0  0  0  0  0  0  0  0  0  0  0
   -2.6839   -2.0663   -1.3671 F   0  0  0  0  0  0  0  0  0  0  0  0
   -0.9229   -3.1376   -2.0567 F   0  0  0  0  0  0  0  0  0  0  0  0
   -5.3512   -0.9699    2.3406 O   0  0  0  0  0  0  0  0  0  0  0  0
   -3.9550   -0.7893    2.1062 C   0  0  1  0  0  0  0  0  0  0  0  0
   -3.7518    0.0941    0.8932 C   0  0  0  0  0  0  0  0  0  0  0  0
   -2.3563    0.6248    1.1248 C   0  0  0  0  0  0  0  0  0  0  0  0
   -2.1929    0.7526    2.5458 O   0  0  0  0  0  0  0  0  0  0  0  0
   -3.2739    0.0462    3.1826 C   0  0  0  0  0  0  0  0  0  0  0  0
   -7.9921   -2.9704   -0.7118 H   0  0  0  0  0  0  0  0  0  0  0  0
   -7.1152   -7.3744   -0.6764 H   0  0  0  0  0  0  0  0  0  0  0  0
   -5.3732   -7.7830    0.9047 H   0  0  0  0  0  0  0  0  0  0  0  0
   -4.5032   -3.3641    2.6095 H   0  0  0  0  0  0  0  0  0  0  0  0
   -8.8097    0.6862    0.7700 H   0  0  0  0  0  0  0  0  0  0  0  0
   -8.5110   -0.4352    2.0763 H   0  0  0  0  0  0  0  0  0  0  0  0
   -9.3017   -0.9835    0.6178 H   0  0  0  0  0  0  0  0  0  0  0  0
   -2.6670   -6.6918    1.0188 H   0  0  0  0  0  0  0  0  0  0  0  0
   -2.0452   -6.5074    3.9779 H   0  0  0  0  0  0  0  0  0  0  0  0
   -1.0074   -7.2386    2.7772 H   0  0  0  0  0  0  0  0  0  0  0  0
   -2.5564   -7.9573    3.1475 H   0  0  0  0  0  0  0  0  0  0  0  0
   -1.0649   -4.7866    3.7002 H   0  0  0  0  0  0  0  0  0  0  0  0
    0.1183   -2.7070    3.3294 H   0  0  0  0  0  0  0  0  0  0  0  0
   -0.0216   -1.5881    1.1852 H   0  0  0  0  0  0  0  0  0  0  0  0
   -0.8117   -1.4706   -0.9276 H   0  0  0  0  0  0  0  0  0  0  0  0
   -3.5628   -1.7824    2.0372 H   0  0  0  0  0  0  0  0  0  0  0  0
   -4.4699    0.8868    0.8643 H   0  0  0  0  0  0  0  0  0  0  0  0
   -3.8708   -0.4174   -0.0391 H   0  0  0  0  0  0  0  0  0  0  0  0
   -2.2417    1.5785    0.6534 H   0  0  0  0  0  0  0  0  0  0  0  0
   -1.6211   -0.0333    0.7109 H   0  0  0  0  0  0  0  0  0  0  0  0
   -3.9699    0.7415    3.6034 H   0  0  0  0  0  0  0  0  0  0  0  0
   -2.9104   -0.5744    3.9748 H   0  0  0  0  0  0  0  0  0  0  0  0
  1  2  2  0
  2  3  1  0
  2 33  1  0
  3  4  2  0
  4  5  1  0
  5  6  2  0
  5 34  1  0
  6  7  1  0
  6 35  1  0
  7 13  1  0
  7  8  2  0
  8  9  1  0
  8  3  1  0
  9 10  2  0
  9 36  1  0
 10 27  1  0
 10  1  1  0
 11 12  1  0
 11 37  1  0
 11 38  1  0
 11 39  1  0
 12  1  1  0
 13 15  1  0
 13 14  1  0
 15 16  1  0
 15 17  1  0
 15 40  1  6
 16 41  1  0
 16 42  1  0
 16 43  1  0
 17 18  2  0
 18 19  1  0
 18 44  1  0
 19 20  2  0
 19 45  1  0
 20 21  1  0
 20 46  1  0
 21 24  1  0
 21 22  2  0
 22 23  1  0
 22 17  1  0
 24 25  1  0
 24 26  1  0
 24 47  1  0
 27 28  1  0
 28 29  1  0
 28 48  1  6
 29 30  1  0
 29 49  1  0
 29 50  1  0
 30 31  1  0
 30 51  1  0
 30 52  1  0
 31 32  1  0
 32 28  1  0
 32 53  1  0
 32 54  1  0
M  END
>  <minimizedAffinity>  (8) 
-7.36829

>  <mol_id>  (8) 
123867

>  <source_index>  (8) 
7

>  <layer>  (8) 
L3

>  <uniprot>  (8) 
P05622

>  <paff>  (8) 
8.1738999999999997

>  <smiles>  (8) 
COc1cc2nccc(N[C@H](C)c3cccc(C(F)F)c3F)c2cc1O[C@H]1CCOC1

$$$$
L3:P05622:133204
     RDKit          3D

 68 71  0  0  0  0  0  0  0  0999 V2000
   -7.3680   -0.2681    0.3798 C   0  0  0  0  0  0  0  0  0  0  0  0
   -7.7289   -1.5435    0.8067 C   0  0  0  0  0  0  0  0  0  0  0  0
   -6.7562   -2.5368    0.8924 C   0  0  0  0  0  0  0  0  0  0  0  0
   -5.4218   -2.2643    0.5354 C   0  0  0  0  0  0  0  0  0  0  0  0
   -5.0686   -0.9656    0.1153 C   0  0  0  0  0  0  0  0  0  0  0  0
   -6.0412    0.0387    0.0776 C   0  0  0  0  0  0  0  0  0  0  0  0
   -8.4035    0.6869    0.3401 O   0  0  0  0  0  0  0  0  0  0  0  0
   -9.2465    0.8407    1.4291 C   0  0  0  0  0  0  0  0  0  0  0  0
  -10.3000    0.2649    1.6489 O   0  0  0  0  0  0  0  0  0  0  0  0
  -10.4780    3.4808    2.2077 C   0  0  0  0  0  0  0  0  0  0  0  0
   -9.1412    3.0299    2.7424 C   0  0  0  0  0  0  0  0  0  0  0  0
   -8.6057    1.7663    2.3955 C   0  0  0  0  0  0  0  0  0  0  0  0
   -7.4106    1.3077    2.9714 C   0  0  0  0  0  0  0  0  0  0  0  0
   -6.7064    2.1146    3.8559 C   0  0  0  0  0  0  0  0  0  0  0  0
   -7.1883    3.3862    4.1582 C   0  0  0  0  0  0  0  0  0  0  0  0
   -8.3945    3.8684    3.6082 C   0  0  0  0  0  0  0  0  0  0  0  0
   -8.8223    5.2328    3.9620 C   0  0  0  0  0  0  0  0  0  0  0  0
   -8.3734    6.3400    3.2239 C   0  0  0  0  0  0  0  0  0  0  0  0
   -8.7621    7.6362    3.5730 C   0  0  0  0  0  0  0  0  0  0  0  0
   -9.6004    7.8417    4.6669 C   0  0  0  0  0  0  0  0  0  0  0  0
  -10.0539    6.7549    5.4110 C   0  0  0  0  0  0  0  0  0  0  0  0
   -9.6651    5.4596    5.0618 C   0  0  0  0  0  0  0  0  0  0  0  0
   -4.3947   -3.3719    0.6247 C   0  0  0  0  0  0  0  0  0  0  0  0
   -4.8400   -4.5500   -0.1275 N   0  0  0  0  0  0  0  0  0  0  0  0
   -4.0540   -4.8679   -0.6995 H   0  0  0  0  0  0  0  0  0  0  0  0
   -5.2411   -5.6996    0.7358 C   0  0  1  0  0  0  0  0  0  0  0  0
   -6.5630   -6.3214    0.2903 C   0  0  0  0  0  0  0  0  0  0  0  0
   -7.6632   -5.7926    0.2840 O   0  0  0  0  0  0  0  0  0  0  0  0
   -6.4177   -7.5869   -0.1709 O   0  0  0  0  0  0  0  0  0  0  0  0
   -7.3223   -7.8413   -0.4555 H   0  0  0  0  0  0  0  0  0  0  0  0
   -4.1455   -6.7688    0.8621 C   0  0  0  0  0  0  0  0  0  0  0  0
   -4.2361   -7.4321    2.1270 O   0  0  0  0  0  0  0  0  0  0  0  0
   -4.5885   -6.7644    2.7546 H   0  0  0  0  0  0  0  0  0  0  0  0
   -3.7507   -0.7711   -0.2188 O   0  0  0  0  0  0  0  0  0  0  0  0
   -3.1778    0.5215    0.0103 C   0  0  0  0  0  0  0  0  0  0  0  0
   -2.4977    0.6268    1.3574 C   0  0  0  0  0  0  0  0  0  0  0  0
   -3.1211    0.1202    2.5068 C   0  0  0  0  0  0  0  0  0  0  0  0
   -2.4801    0.1750    3.7443 C   0  0  0  0  0  0  0  0  0  0  0  0
   -1.2065    0.7363    3.8469 C   0  0  0  0  0  0  0  0  0  0  0  0
   -0.5743    1.2522    2.7116 C   0  0  0  0  0  0  0  0  0  0  0  0
   -1.2255    1.2069    1.4745 C   0  0  0  0  0  0  0  0  0  0  0  0
    0.7379    1.8237    2.8164 C   0  0  0  0  0  0  0  0  0  0  0  0
    1.8107    2.2617    2.9045 N   0  0  0  0  0  0  0  0  0  0  0  0
   -8.7083   -1.7509    1.0573 H   0  0  0  0  0  0  0  0  0  0  0  0
   -7.0158   -3.4803    1.2203 H   0  0  0  0  0  0  0  0  0  0  0  0
   -5.7779    1.0045   -0.1732 H   0  0  0  0  0  0  0  0  0  0  0  0
  -10.8853    2.7185    1.5769 H   0  0  0  0  0  0  0  0  0  0  0  0
  -10.3511    4.3809    1.6432 H   0  0  0  0  0  0  0  0  0  0  0  0
  -11.1456    3.6628    3.0238 H   0  0  0  0  0  0  0  0  0  0  0  0
   -7.0540    0.3681    2.7369 H   0  0  0  0  0  0  0  0  0  0  0  0
   -5.8322    1.7744    4.2861 H   0  0  0  0  0  0  0  0  0  0  0  0
   -6.6502    3.9896    4.7996 H   0  0  0  0  0  0  0  0  0  0  0  0
   -7.7496    6.1949    2.4147 H   0  0  0  0  0  0  0  0  0  0  0  0
   -8.4282    8.4414    3.0205 H   0  0  0  0  0  0  0  0  0  0  0  0
   -9.8853    8.7992    4.9259 H   0  0  0  0  0  0  0  0  0  0  0  0
  -10.6767    6.9067    6.2197 H   0  0  0  0  0  0  0  0  0  0  0  0
  -10.0016    4.6590    5.6193 H   0  0  0  0  0  0  0  0  0  0  0  0
   -4.2563   -3.6414    1.6509 H   0  0  0  0  0  0  0  0  0  0  0  0
   -3.4736   -3.0231    0.2065 H   0  0  0  0  0  0  0  0  0  0  0  0
   -5.3854   -5.2869    1.7124 H   0  0  0  0  0  0  0  0  0  0  0  0
   -3.1864   -6.3020    0.7772 H   0  0  0  0  0  0  0  0  0  0  0  0
   -4.2747   -7.4905    0.0828 H   0  0  0  0  0  0  0  0  0  0  0  0
   -3.9557    1.2546   -0.0389 H   0  0  0  0  0  0  0  0  0  0  0  0
   -2.4339    0.6838   -0.7415 H   0  0  0  0  0  0  0  0  0  0  0  0
   -4.0625   -0.2968    2.4364 H   0  0  0  0  0  0  0  0  0  0  0  0
   -2.9478   -0.1997    4.5845 H   0  0  0  0  0  0  0  0  0  0  0  0
   -0.7307    0.7706    4.7620 H   0  0  0  0  0  0  0  0  0  0  0  0
   -0.7659    1.6039    0.6401 H   0  0  0  0  0  0  0  0  0  0  0  0
  1  2  2  0
  2  3  1  0
  2 44  1  0
  3  4  2  0
  3 45  1  0
  4 23  1  0
  4  5  1  0
  5 34  1  0
  5  6  2  0
  6  1  1  0
  6 46  1  0
  7  1  1  0
  8  9  2  0
  8  7  1  0
 10 11  1  0
 10 47  1  0
 10 48  1  0
 10 49  1  0
 11 12  2  0
 12  8  1  0
 12 13  1  0
 13 14  2  0
 13 50  1  0
 14 15  1  0
 14 51  1  0
 15 16  2  0
 15 52  1  0
 16 17  1  0
 16 11  1  0
 17 18  2  0
 18 19  1  0
 18 53  1  0
 19 20  2  0
 19 54  1  0
 20 21  1  0
 20 55  1  0
 21 22  2  0
 21 56  1  0
 22 17  1  0
 22 57  1  0
 23 24  1  0
 23 58  1  0
 23 59  1  0
 24 26  1  0
 24 25  1  0
 26 31  1  0
 26 27  1  0
 26 60  1  1
 27 28  2  0
 27 29  1  0
 29 30  1  0
 31 32  1  0
 31 61  1  0
 31 62  1  0
 32 33  1  0
 34 35  1  0
 35 36  1  0
 35 63  1  0
 35 64  1  0
 36 37  2  0
 37 38  1  0
 37 65  1  0
 38 39  2  0
 38 66  1  0
 39 40  1  0
 39 67  1  0
 40 42  1  0
 40 41  2  0
 41 36  1  0
 41 68  1  0
 42 43  3  0
M  END
>  <minimizedAffinity>  (9) 
-9.87538

>  <mol_id>  (9) 
133204

>  <source_index>  (9) 
8

>  <layer>  (9) 
L3

>  <uniprot>  (9) 
P05622

>  <paff>  (9) 
7.6197999999999997

>  <smiles>  (9) 
Cc1c(C(=O)Oc2ccc(CN[C@H](CO)C(=O)O)c(OCc3cccc(C#N)c3)c2)cccc1-c1ccccc1

$$$$
L3:P05622:141441
     RDKit          3D

 58 62  0  0  0  0  0  0  0  0999 V2000
   -1.9457   -2.4675    1.5504 C   0  0  0  0  0  0  0  0  0  0  0  0
   -0.8074   -1.8147    1.9915 C   0  0  0  0  0  0  0  0  0  0  0  0
   -0.9285   -0.6017    2.6589 C   0  0  0  0  0  0  0  0  0  0  0  0
   -2.1402   -0.0482    2.8589 N   0  0  0  0  0  0  0  0  0  0  0  0
   -3.2072   -0.7172    2.3899 C   0  0  0  0  0  0  0  0  0  0  0  0
   -3.1441   -1.8987    1.7516 N   0  0  0  0  0  0  0  0  0  0  0  0
   -4.5283   -0.1271    2.6394 C   0  0  0  0  0  0  0  0  0  0  0  0
   -4.8563    0.4312    3.8990 C   0  0  0  0  0  0  0  0  0  0  0  0
   -6.1082    0.9863    4.1582 C   0  0  0  0  0  0  0  0  0  0  0  0
   -7.0937    1.0138    3.1724 C   0  0  0  0  0  0  0  0  0  0  0  0
   -6.7763    0.4718    1.9220 C   0  0  0  0  0  0  0  0  0  0  0  0
   -7.5538    0.3716    0.7886 N   0  0  0  0  0  0  0  0  0  0  0  0
   -6.8440   -0.2083   -0.2262 C   0  0  0  0  0  0  0  0  0  0  0  0
   -5.5877   -0.4882    0.2543 C   0  0  0  0  0  0  0  0  0  0  0  0
   -5.5271   -0.0877    1.6269 C   0  0  0  0  0  0  0  0  0  0  0  0
   -8.5125    0.6856    0.7229 H   0  0  0  0  0  0  0  0  0  0  0  0
   -2.1189   -5.7952    2.0918 C   0  0  0  0  0  0  0  0  0  0  0  0
   -2.8346   -4.7672    1.2080 C   0  0  2  0  0  0  0  0  0  0  0  0
   -3.3872   -5.4877   -0.0528 C   0  0  0  0  0  0  0  0  0  0  0  0
   -3.9334   -4.5844   -1.0246 O   0  0  0  0  0  0  0  0  0  0  0  0
   -3.0779   -3.4644   -1.3075 C   0  0  0  0  0  0  0  0  0  0  0  0
   -1.7044   -3.5289   -0.6208 C   0  0  0  0  0  0  0  0  0  0  0  0
   -1.8819   -3.6781    0.8395 N   0  0  0  0  0  0  0  0  0  0  0  0
    0.2879    0.1366    3.1398 C   0  0  0  0  0  0  0  0  0  0  0  0
    1.4907   -0.5828    3.7100 C   0  0  0  0  0  0  0  0  0  0  0  0
    0.5934    0.1847    4.6301 C   0  0  0  0  0  0  0  0  0  0  0  0
    0.6272    1.7434    2.3025 S   0  0  0  0  0  0  0  0  0  0  0  0
   -0.1692    2.7542    2.9648 O   0  0  0  0  0  0  0  0  0  0  0  0
    2.0753    1.8575    2.2683 O   0  0  0  0  0  0  0  0  0  0  0  0
    0.0733    1.6741    0.6797 N   0  0  0  0  0  0  0  0  0  0  0  0
    1.1489    1.8923   -0.3197 C   0  0  0  0  0  0  0  0  0  0  0  0
   -1.0934    2.5498    0.4049 C   0  0  0  0  0  0  0  0  0  0  0  0
    0.1245   -2.2259    1.8259 H   0  0  0  0  0  0  0  0  0  0  0  0
   -4.1464    0.4269    4.6480 H   0  0  0  0  0  0  0  0  0  0  0  0
   -6.3079    1.3814    5.0904 H   0  0  0  0  0  0  0  0  0  0  0  0
   -8.0242    1.4195    3.3583 H   0  0  0  0  0  0  0  0  0  0  0  0
   -7.1892   -0.4007   -1.1795 H   0  0  0  0  0  0  0  0  0  0  0  0
   -4.8176   -0.9152   -0.2838 H   0  0  0  0  0  0  0  0  0  0  0  0
   -2.8017   -6.5755    2.3558 H   0  0  0  0  0  0  0  0  0  0  0  0
   -1.7640   -5.3161    2.9803 H   0  0  0  0  0  0  0  0  0  0  0  0
   -1.2914   -6.2114    1.5562 H   0  0  0  0  0  0  0  0  0  0  0  0
   -3.6539   -4.3244    1.7348 H   0  0  0  0  0  0  0  0  0  0  0  0
   -4.1570   -6.1653    0.2524 H   0  0  0  0  0  0  0  0  0  0  0  0
   -2.5664   -5.9949   -0.5153 H   0  0  0  0  0  0  0  0  0  0  0  0
   -3.5736   -2.5735   -0.9826 H   0  0  0  0  0  0  0  0  0  0  0  0
   -2.8946   -3.4772   -2.3616 H   0  0  0  0  0  0  0  0  0  0  0  0
   -1.1634   -2.6281   -0.8228 H   0  0  0  0  0  0  0  0  0  0  0  0
   -1.1594   -4.3687   -0.9984 H   0  0  0  0  0  0  0  0  0  0  0  0
    2.4760   -0.2211    3.5021 H   0  0  0  0  0  0  0  0  0  0  0  0
    1.8503   -1.5900    3.6769 H   0  0  0  0  0  0  0  0  0  0  0  0
    0.9372    1.0945    5.0762 H   0  0  0  0  0  0  0  0  0  0  0  0
    0.0482   -0.0469    5.5212 H   0  0  0  0  0  0  0  0  0  0  0  0
    1.9761    1.2504   -0.0993 H   0  0  0  0  0  0  0  0  0  0  0  0
    1.4691    2.9126   -0.2820 H   0  0  0  0  0  0  0  0  0  0  0  0
    0.7768    1.6712   -1.2982 H   0  0  0  0  0  0  0  0  0  0  0  0
   -1.8525    2.3731    1.1380 H   0  0  0  0  0  0  0  0  0  0  0  0
   -1.4805    2.3331   -0.5688 H   0  0  0  0  0  0  0  0  0  0  0  0
   -0.7881    3.5744    0.4474 H   0  0  0  0  0  0  0  0  0  0  0  0
  1  2  2  0
  2  3  1  0
  2 33  1  0
  3 24  1  0
  3  4  2  0
  4  5  1  0
  5  7  1  0
  5  6  2  0
  6  1  1  0
  7  8  2  0
  8  9  1  0
  8 34  1  0
  9 10  2  0
  9 35  1  0
 10 11  1  0
 10 36  1  0
 11 12  1  0
 12 13  1  0
 12 16  1  0
 13 14  2  0
 13 37  1  0
 14 15  1  0
 14 38  1  0
 15  7  1  0
 15 11  2  0
 17 18  1  0
 17 39  1  0
 17 40  1  0
 17 41  1  0
 18 19  1  0
 18 42  1  1
 19 20  1  0
 19 43  1  0
 19 44  1  0
 20 21  1  0
 21 22  1  0
 21 45  1  0
 21 46  1  0
 22 23  1  0
 22 47  1  0
 22 48  1  0
 23  1  1  0
 23 18  1  0
 24 27  1  0
 24 25  1  0
 25 26  1  0
 25 49  1  0
 25 50  1  0
 26 24  1  0
 26 51  1  0
 26 52  1  0
 27 28  2  0
 27 29  2  0
 27 30  1  0
 30 31  1  0
 30 32  1  0
 31 53  1  0
 31 54  1  0
 31 55  1  0
 32 56  1  0
 32 57  1  0
 32 58  1  0
M  END
>  <minimizedAffinity>  (10) 
-8.41561

>  <mol_id>  (10) 
141441

>  <source_index>  (10) 
9

>  <layer>  (10) 
L3

>  <uniprot>  (10) 
P05622

>  <paff>  (10) 
6.1273

>  <smiles>  (10) 
C[C@@H]1COCCN1c1cc(C2(S(=O)(=O)N(C)C)CC2)nc(-c2cccc3[nH]ccc23)n1

$$$$
